1n1m_lig_A3M
                    3D
 Structure written by MMmdl.
 31 31  0  0  1  0            999 V2000
   35.0860   47.5790   35.0350 C   0  0  0  0  0  0
   36.4150   48.4020   34.7020 C   0  0  0  0  0  0
   36.6190   49.2710   35.8730 N   0  0  0  0  0  0
   35.2580   49.5590   36.3520 C   0  0  0  0  0  0
   34.6620   48.1420   36.4620 C   0  0  0  0  0  0
   37.4840   50.4260   35.6040 C   0  0  0  0  0  0
   38.8560   50.3740   35.0990 C   0  0  2  0  0  0
   39.9730   50.3700   36.0850 C   0  0  0  0  0  0
   39.9680   49.2210   36.9950 C   0  0  0  0  0  0
   36.9730   51.6930   35.8390 O   0  0  0  0  0  0
   39.1290   51.4820   34.1430 N   0  3  0  0  0  0
   41.4580   50.3000   35.2790 C   0  0  0  0  0  0
   34.3360   47.7740   34.2690 H   0  0  0  0  0  0
   35.3130   46.5130   35.0570 H   0  0  0  0  0  0
   37.2450   47.7100   34.5620 H   0  0  0  0  0  0
   36.2660   48.9790   33.7890 H   0  0  0  0  0  0
   35.3120   50.0790   37.3090 H   0  0  0  0  0  0
   34.7430   50.1880   35.6260 H   0  0  0  0  0  0
   33.5760   48.1170   36.5560 H   0  0  0  0  0  0
   35.1070   47.5260   37.2430 H   0  0  0  0  0  0
   38.9720   49.5060   34.4500 H   0  0  0  0  0  0
   39.8990   51.2510   36.7210 H   0  0  0  0  0  0
   40.8140   49.2960   37.6800 H   0  0  0  0  0  0
   39.0400   49.2120   37.5660 H   0  0  0  0  0  0
   40.0480   48.3000   36.4180 H   0  0  0  0  0  0
   40.0820   51.4180   33.8140 H   0  0  0  0  0  0
   38.4970   51.4130   33.3580 H   0  0  0  0  0  0
   38.9930   52.3690   34.6060 H   0  0  0  0  0  0
   42.2680   50.2980   36.0090 H   0  0  0  0  0  0
   41.5060   49.3900   34.6820 H   0  0  0  0  0  0
   41.5600   51.1680   34.6280 H   0  0  0  0  0  0
  1  2  1  0  0  0
  1  5  1  0  0  0
  1 13  1  0  0  0
  1 14  1  0  0  0
  2  3  1  0  0  0
  2 15  1  0  0  0
  2 16  1  0  0  0
  3  4  1  0  0  0
  3  6  1  0  0  0
  4  5  1  0  0  0
  4 17  1  0  0  0
  4 18  1  0  0  0
  5 19  1  0  0  0
  5 20  1  0  0  0
  6  7  1  0  0  0
  6 10  2  0  0  0
  7  8  1  0  0  0
  7 11  1  0  0  0
  7 21  1  0  0  0
  8  9  1  0  0  0
  8 12  1  0  0  0
  8 22  1  0  0  0
  9 23  1  0  0  0
  9 24  1  0  0  0
  9 25  1  0  0  0
 11 26  1  0  0  0
 11 27  1  0  0  0
 11 28  1  0  0  0
 12 29  1  0  0  0
 12 30  1  0  0  0
 12 31  1  0  0  0
M  CHG  1  11   1
M  END
> <s_m_entry_id>
1

> <s_m_entry_name>
P27487.1

$$$$
1rwq_lig_5AP
                    3D
 Structure written by MMmdl.
 43 45  0  0  1  0            999 V2000
   36.2240   52.4190   36.8690 Cl  0  0  0  0  0  0
   36.6310   50.7660   36.5450 C   0  0  0  0  0  0
   35.5820   49.9810   36.1820 C   0  0  0  0  0  0
   35.9050   48.6910   35.9260 C   0  0  0  0  0  0
   34.6750   47.5070   35.4360 Cl  0  0  0  0  0  0
   37.1940   48.2460   36.0380 C   0  0  0  0  0  0
   38.2380   49.0440   36.4160 C   0  0  0  0  0  0
   37.9360   50.3290   36.6830 C   0  0  0  0  0  0
   39.0820   51.2210   37.0600 C   0  0  0  0  0  0
   39.7400   52.0880   36.0890 C   0  0  0  0  0  0
   39.4450   51.9950   34.6560 C   0  0  0  0  0  0
   38.2200   52.0330   34.2090 N   0  0  0  0  0  0
   40.6740   53.0850   36.6240 C   0  0  0  0  0  0
   41.2890   53.9730   35.8160 N   0  0  0  0  0  0
   39.3810   51.3560   38.2980 N   0  0  0  0  0  0
   40.2460   52.2460   38.6990 C   0  0  0  0  0  0
   40.8730   53.1090   37.9200 N   0  0  0  0  0  0
   40.4790   52.2550   40.1290 C   0  0  0  0  0  0
   39.8440   51.3290   40.9240 C   0  0  0  0  0  0
   40.0640   51.3400   42.2950 C   0  0  0  0  0  0
   39.4510   50.4320   43.1100 O   0  0  0  0  0  0
   39.9530   49.0920   43.1770 C   0  0  0  0  0  0
   40.9280   52.2740   42.8360 C   0  0  0  0  0  0
   41.5410   53.1940   41.9820 C   0  0  0  0  0  0
   41.3180   53.1860   40.6260 C   0  0  0  0  0  0
   42.3590   54.1380   42.4900 O   0  0  0  0  0  0
   41.7950   54.9170   43.5420 C   0  0  0  0  0  0
   34.5900   50.4020   36.1180 H   0  0  0  0  0  0
   37.4300   47.2140   35.8230 H   0  0  0  0  0  0
   39.2350   48.6320   36.4850 H   0  0  0  0  0  0
   40.2510   51.8920   33.9450 H   0  0  0  0  0  0
   38.0420   51.9670   33.2170 H   0  0  0  0  0  0
   41.9280   54.6510   36.2050 H   0  0  0  0  0  0
   41.1100   53.9590   34.8220 H   0  0  0  0  0  0
   39.1800   50.6010   40.4820 H   0  0  0  0  0  0
   39.3460   48.5110   43.8720 H   0  0  0  0  0  0
   39.9070   48.6360   42.1880 H   0  0  0  0  0  0
   40.9870   49.1070   43.5230 H   0  0  0  0  0  0
   41.1180   52.2820   43.9000 H   0  0  0  0  0  0
   41.7900   53.8950   39.9630 H   0  0  0  0  0  0
   42.5270   55.6490   43.8860 H   0  0  0  0  0  0
   40.9090   55.4360   43.1770 H   0  0  0  0  0  0
   41.5190   54.2650   44.3700 H   0  0  0  0  0  0
  1  2  1  0  0  0
  2  3  2  0  0  0
  2  8  1  0  0  0
  3  4  1  0  0  0
  3 28  1  0  0  0
  4  5  1  0  0  0
  4  6  2  0  0  0
  6  7  1  0  0  0
  6 29  1  0  0  0
  7  8  2  0  0  0
  7 30  1  0  0  0
  8  9  1  0  0  0
  9 10  2  0  0  0
  9 15  1  0  0  0
 10 11  1  0  0  0
 10 13  1  0  0  0
 11 12  2  0  0  0
 11 31  1  0  0  0
 12 32  1  0  0  0
 13 14  1  0  0  0
 13 17  2  0  0  0
 14 33  1  0  0  0
 14 34  1  0  0  0
 15 16  2  0  0  0
 16 17  1  0  0  0
 16 18  1  0  0  0
 18 19  2  0  0  0
 18 25  1  0  0  0
 19 20  1  0  0  0
 19 35  1  0  0  0
 20 21  1  0  0  0
 20 23  2  0  0  0
 21 22  1  0  0  0
 22 36  1  0  0  0
 22 37  1  0  0  0
 22 38  1  0  0  0
 23 24  1  0  0  0
 23 39  1  0  0  0
 24 25  2  0  0  0
 24 26  1  0  0  0
 25 40  1  0  0  0
 26 27  1  0  0  0
 27 41  1  0  0  0
 27 42  1  0  0  0
 27 43  1  0  0  0
M  END
> <s_m_entry_id>
2

> <s_m_entry_name>
P27487.2

$$$$
1x70_lig_715
                    3D
 Structure written by MMmdl.
 44 46  0  0  1  0            999 V2000
   34.9400   50.4530   36.6020 C   0  0  0  0  0  0
   36.2760   50.9600   36.6960 C   0  0  0  0  0  0
   37.4380   50.1380   36.4230 C   0  0  0  0  0  0
   37.2380   48.7570   36.0350 C   0  0  0  0  0  0
   35.9110   48.2610   35.9430 C   0  0  0  0  0  0
   34.7920   49.0910   36.2230 C   0  0  0  0  0  0
   35.7340   47.0170   35.5880 F   0  0  0  0  0  0
   36.4390   52.2440   37.0460 F   0  0  0  0  0  0
   38.7930   50.7540   36.5330 C   0  0  0  0  0  0
   39.4970   50.8830   35.1570 C   0  0  2  0  0  0
   40.8020   51.6100   35.3800 C   0  0  0  0  0  0
   41.9810   50.8320   36.0790 C   0  0  0  0  0  0
   43.2030   51.5570   36.3400 N   0  0  0  0  0  0
   38.6640   51.6580   34.2410 N   0  3  0  0  0  0
   41.7910   49.6610   36.4020 O   0  0  0  0  0  0
   43.4690   52.4200   35.1750 C   0  0  0  0  0  0
   44.6420   52.0280   34.2840 C   0  0  0  0  0  0
   45.8150   51.5590   35.0760 N   0  0  0  0  0  0
   45.7540   50.8780   36.2510 C   0  0  0  0  0  0
   44.3310   50.5700   36.7930 C   0  0  0  0  0  0
   47.1420   51.6600   34.8650 C   0  0  0  0  0  0
   47.8050   51.0650   35.8720 N   0  0  0  0  0  0
   46.9770   50.6020   36.6960 N   0  0  0  0  0  0
   47.8280   52.3210   33.6730 C   0  0  0  0  0  0
   49.1240   52.1840   33.8250 F   0  0  0  0  0  0
   47.4900   53.6060   33.6700 F   0  0  0  0  0  0
   47.4180   51.7120   32.5680 F   0  0  0  0  0  0
   33.6100   48.6200   36.1370 F   0  0  0  0  0  0
   34.1010   51.0980   36.8150 H   0  0  0  0  0  0
   38.0880   48.1270   35.8240 H   0  0  0  0  0  0
   38.7050   51.7520   36.9610 H   0  0  0  0  0  0
   39.4220   50.1380   37.1760 H   0  0  0  0  0  0
   39.6990   49.8900   34.7560 H   0  0  0  0  0  0
   41.2080   51.9310   34.4210 H   0  0  0  0  0  0
   40.6290   52.4820   36.0110 H   0  0  0  0  0  0
   39.1290   51.7380   33.3480 H   0  0  0  0  0  0
   37.7760   51.1920   34.1180 H   0  0  0  0  0  0
   38.5100   52.5790   34.6230 H   0  0  0  0  0  0
   42.5960   52.4320   34.5240 H   0  0  0  0  0  0
   43.6830   53.4340   35.5140 H   0  0  0  0  0  0
   44.3380   51.2220   33.6170 H   0  0  0  0  0  0
   44.9540   52.8890   33.6930 H   0  0  0  0  0  0
   44.4100   50.5810   37.8800 H   0  0  0  0  0  0
   44.0890   49.5620   36.4560 H   0  0  0  0  0  0
  1  2  2  0  0  0
  1  6  1  0  0  0
  1 29  1  0  0  0
  2  3  1  0  0  0
  2  8  1  0  0  0
  3  4  2  0  0  0
  3  9  1  0  0  0
  4  5  1  0  0  0
  4 30  1  0  0  0
  5  6  2  0  0  0
  5  7  1  0  0  0
  6 28  1  0  0  0
  9 10  1  0  0  0
  9 31  1  0  0  0
  9 32  1  0  0  0
 10 11  1  0  0  0
 10 14  1  0  0  0
 10 33  1  0  0  0
 11 12  1  0  0  0
 11 34  1  0  0  0
 11 35  1  0  0  0
 12 13  1  0  0  0
 12 15  2  0  0  0
 13 16  1  0  0  0
 13 20  1  0  0  0
 14 36  1  0  0  0
 14 37  1  0  0  0
 14 38  1  0  0  0
 16 17  1  0  0  0
 16 39  1  0  0  0
 16 40  1  0  0  0
 17 18  1  0  0  0
 17 41  1  0  0  0
 17 42  1  0  0  0
 18 19  1  0  0  0
 18 21  1  0  0  0
 19 20  1  0  0  0
 19 23  2  0  0  0
 20 43  1  0  0  0
 20 44  1  0  0  0
 21 22  2  0  0  0
 21 24  1  0  0  0
 22 23  1  0  0  0
 24 25  1  0  0  0
 24 26  1  0  0  0
 24 27  1  0  0  0
M  CHG  1  14   1
M  END
> <s_m_entry_id>
3

> <s_m_entry_name>
P27487.3

$$$$
2ajl_lig_JNH
                    3D
 Structure written by MMmdl.
 48 50  0  0  1  0            999 V2000
   36.7230   50.3450   36.3670 N   0  0  0  0  0  0
   35.7490   49.7200   37.3030 C   0  0  1  0  0  0
   35.9880   48.2520   37.0190 C   0  0  0  0  0  0
   36.0130   48.2610   35.5190 C   0  0  0  0  0  0
   37.0540   49.3580   35.3520 C   0  0  0  0  0  0
   37.4100   51.5300   36.6340 C   0  0  0  0  0  0
   38.6670   51.8600   35.8060 C   0  0  2  0  0  0
   37.1120   52.3300   37.5190 O   0  0  0  0  0  0
   38.4410   51.9740   34.3800 N   0  3  0  0  0  0
   39.8870   50.9540   36.1970 C   0  0  0  0  0  0
   44.1030   51.7420   35.4580 C   0  0  0  0  0  0
   43.1450   52.6550   34.9320 C   0  0  0  0  0  0
   41.7630   52.4570   35.1570 C   0  0  0  0  0  0
   41.3500   51.3290   35.8880 C   0  0  0  0  0  0
   42.2870   50.4600   36.4720 C   0  0  0  0  0  0
   43.6500   50.6580   36.2560 C   0  0  0  0  0  0
   48.2460   51.8630   34.4350 C   0  0  0  0  0  0
   47.3100   52.5370   33.6380 C   0  0  0  0  0  0
   45.9530   52.5190   34.0080 C   0  0  0  0  0  0
   45.4940   51.8260   35.1750 C   0  0  0  0  0  0
   46.4660   51.1490   35.9820 C   0  0  0  0  0  0
   47.8410   51.1890   35.6160 C   0  0  0  0  0  0
   35.6690   49.6870   38.8460 C   0  0  0  0  0  0
   36.5010   50.0120   39.8210 N   0  0  0  0  0  0
   34.7350   49.9730   36.9940 H   0  0  0  0  0  0
   36.9300   47.9430   37.4710 H   0  0  0  0  0  0
   35.1730   47.6640   37.4390 H   0  0  0  0  0  0
   36.3130   47.2780   35.1540 H   0  0  0  0  0  0
   35.0210   48.5020   35.1390 H   0  0  0  0  0  0
   37.0000   49.8180   34.3650 H   0  0  0  0  0  0
   38.0640   48.9850   35.5230 H   0  0  0  0  0  0
   39.2050   52.6840   36.2740 H   0  0  0  0  0  0
   39.3120   52.1910   33.9170 H   0  0  0  0  0  0
   38.0800   51.1010   34.0250 H   0  0  0  0  0  0
   39.9080   50.8190   37.2780 H   0  0  0  0  0  0
   39.7900   49.9830   35.7110 H   0  0  0  0  0  0
   43.4720   53.5090   34.3570 H   0  0  0  0  0  0
   41.0460   53.1670   34.7700 H   0  0  0  0  0  0
   41.9510   49.6400   37.0890 H   0  0  0  0  0  0
   44.3630   49.9800   36.7000 H   0  0  0  0  0  0
   49.2890   51.8530   34.1520 H   0  0  0  0  0  0
   47.6340   53.0620   32.7520 H   0  0  0  0  0  0
   45.2220   53.0380   33.4050 H   0  0  0  0  0  0
   46.1540   50.6100   36.8650 H   0  0  0  0  0  0
   48.5760   50.7040   36.2410 H   0  0  0  0  0  0
   37.4830   50.1490   39.6220 H   0  0  0  0  0  0
   34.6874   49.3021   39.0796 H   0  0  0  0  0  0
   37.7729   52.7103   34.2023 H   0  0  0  0  0  0
  1  2  1  0  0  0
  1  5  1  0  0  0
  1  6  1  0  0  0
  2  3  1  0  0  0
  2 23  1  0  0  0
  2 25  1  0  0  0
  3  4  1  0  0  0
  3 26  1  0  0  0
  3 27  1  0  0  0
  4  5  1  0  0  0
  4 28  1  0  0  0
  4 29  1  0  0  0
  5 30  1  0  0  0
  5 31  1  0  0  0
  6  7  1  0  0  0
  6  8  2  0  0  0
  7  9  1  0  0  0
  7 10  1  0  0  0
  7 32  1  0  0  0
  9 33  1  0  0  0
  9 34  1  0  0  0
  9 48  1  0  0  0
 10 14  1  0  0  0
 10 35  1  0  0  0
 10 36  1  0  0  0
 11 12  2  0  0  0
 11 16  1  0  0  0
 11 20  1  0  0  0
 12 13  1  0  0  0
 12 37  1  0  0  0
 13 14  2  0  0  0
 13 38  1  0  0  0
 14 15  1  0  0  0
 15 16  2  0  0  0
 15 39  1  0  0  0
 16 40  1  0  0  0
 17 18  2  0  0  0
 17 22  1  0  0  0
 17 41  1  0  0  0
 18 19  1  0  0  0
 18 42  1  0  0  0
 19 20  2  0  0  0
 19 43  1  0  0  0
 20 21  1  0  0  0
 21 22  2  0  0  0
 21 44  1  0  0  0
 22 45  1  0  0  0
 23 24  2  0  0  0
 23 47  1  0  0  0
 24 46  1  0  0  0
M  CHG  1   9   1
M  END
> <s_m_entry_id>
4

> <s_m_entry_name>
P27487.4

$$$$
2fjp_lig_S14
                    3D
 Structure written by MMmdl.
 57 60  0  0  1  0            999 V2000
   47.6450   52.3520   33.8520 C   0  0  0  0  0  0
   46.5640   52.8560   32.9870 C   0  0  0  0  0  0
   45.2700   52.6710   33.3930 C   0  0  0  0  0  0
   44.9410   52.0000   34.6930 C   0  0  0  0  0  0
   45.9590   51.5430   35.4760 C   0  0  0  0  0  0
   47.3500   51.7510   35.0400 N   0  0  0  0  0  0
   48.3930   51.4010   35.6210 N   0  0  0  0  0  0
   49.3960   51.8040   34.8260 C   0  0  0  0  0  0
   48.9720   52.4150   33.7020 N   0  0  0  0  0  0
   43.5480   51.8270   35.1530 C   0  0  0  0  0  0
   42.6630   52.9320   35.0440 C   0  0  0  0  0  0
   41.3460   52.8500   35.4930 C   0  0  0  0  0  0
   40.8410   51.6620   36.0700 C   0  0  0  0  0  0
   41.7250   50.5270   36.1740 C   0  0  0  0  0  0
   43.0690   50.6040   35.7200 C   0  0  0  0  0  0
   39.3790   51.6750   36.5750 C   0  0  1  0  0  0
   38.4110   51.1800   35.4410 C   0  0  1  0  0  0
   36.9600   51.2180   36.0180 C   0  0  0  0  0  0
   36.1870   50.1560   35.7850 N   0  0  0  0  0  0
   39.3520   50.6390   37.7980 C   0  0  0  0  0  0
   38.4900   52.0160   34.2480 N   0  3  0  0  0  0
   36.5710   52.1830   36.6580 O   0  0  0  0  0  0
   38.7240   49.5720   37.7960 O   0  0  0  0  0  0
   39.9570   51.1390   38.9860 N   0  0  0  0  0  0
   39.9490   50.2210   40.1520 C   0  0  0  0  0  0
   40.5610   52.4670   39.1940 C   0  0  0  0  0  0
   36.6360   48.7370   35.4570 C   0  0  0  0  0  0
   35.4290   47.8740   35.4980 C   0  0  2  0  0  0
   34.2530   48.8250   35.5060 C   0  0  0  0  0  0
   34.7500   50.2000   35.9530 C   0  0  0  0  0  0
   35.4310   47.2070   36.7050 F   0  0  0  0  0  0
   46.8040   53.3560   32.0600 H   0  0  0  0  0  0
   44.4550   53.0110   32.7720 H   0  0  0  0  0  0
   45.7400   51.0360   36.4050 H   0  0  0  0  0  0
   50.4210   51.6260   35.1170 H   0  0  0  0  0  0
   43.0070   53.8570   34.6050 H   0  0  0  0  0  0
   40.6910   53.7040   35.4040 H   0  0  0  0  0  0
   41.3680   49.6020   36.6010 H   0  0  0  0  0  0
   43.7270   49.7510   35.8000 H   0  0  0  0  0  0
   39.0920   52.6940   36.8310 H   0  0  0  0  0  0
   38.6880   50.1690   35.1410 H   0  0  0  0  0  0
   37.8550   51.6640   33.5480 H   0  0  0  0  0  0
   38.2390   52.9650   34.4850 H   0  0  0  0  0  0
   39.4340   51.9980   33.8860 H   0  0  0  0  0  0
   40.4350   50.7050   40.9990 H   0  0  0  0  0  0
   38.9200   49.9760   40.4150 H   0  0  0  0  0  0
   40.4860   49.3070   39.8980 H   0  0  0  0  0  0
   40.9380   52.5400   40.2140 H   0  0  0  0  0  0
   41.3850   52.6060   38.4930 H   0  0  0  0  0  0
   39.8100   53.2390   39.0280 H   0  0  0  0  0  0
   37.0860   48.7190   34.4640 H   0  0  0  0  0  0
   37.3670   48.4070   36.1940 H   0  0  0  0  0  0
   35.3620   47.2970   34.5760 H   0  0  0  0  0  0
   33.8310   48.8880   34.5020 H   0  0  0  0  0  0
   33.4940   48.4590   36.1960 H   0  0  0  0  0  0
   34.5120   50.3920   37.0000 H   0  0  0  0  0  0
   34.3360   50.9960   35.3340 H   0  0  0  0  0  0
  1  2  1  0  0  0
  1  6  1  0  0  0
  1  9  2  0  0  0
  2  3  2  0  0  0
  2 32  1  0  0  0
  3  4  1  0  0  0
  3 33  1  0  0  0
  4  5  2  0  0  0
  4 10  1  0  0  0
  5  6  1  0  0  0
  5 34  1  0  0  0
  6  7  1  0  0  0
  7  8  2  0  0  0
  8  9  1  0  0  0
  8 35  1  0  0  0
 10 11  2  0  0  0
 10 15  1  0  0  0
 11 12  1  0  0  0
 11 36  1  0  0  0
 12 13  2  0  0  0
 12 37  1  0  0  0
 13 14  1  0  0  0
 13 16  1  0  0  0
 14 15  2  0  0  0
 14 38  1  0  0  0
 15 39  1  0  0  0
 16 17  1  0  0  0
 16 20  1  0  0  0
 16 40  1  0  0  0
 17 18  1  0  0  0
 17 21  1  0  0  0
 17 41  1  0  0  0
 18 19  1  0  0  0
 18 22  2  0  0  0
 19 27  1  0  0  0
 19 30  1  0  0  0
 20 23  2  0  0  0
 20 24  1  0  0  0
 21 42  1  0  0  0
 21 43  1  0  0  0
 21 44  1  0  0  0
 24 25  1  0  0  0
 24 26  1  0  0  0
 25 45  1  0  0  0
 25 46  1  0  0  0
 25 47  1  0  0  0
 26 48  1  0  0  0
 26 49  1  0  0  0
 26 50  1  0  0  0
 27 28  1  0  0  0
 27 51  1  0  0  0
 27 52  1  0  0  0
 28 29  1  0  0  0
 28 31  1  0  0  0
 28 53  1  0  0  0
 29 30  1  0  0  0
 29 54  1  0  0  0
 29 55  1  0  0  0
 30 56  1  0  0  0
 30 57  1  0  0  0
M  CHG  1  21   1
M  END
> <s_m_entry_id>
5

> <s_m_entry_name>
P27487.5

$$$$
2g5p_lig_ADF
                    3D
 Structure written by MMmdl.
 60 62  0  0  1  0            999 V2000
   37.2870   50.5610   36.0000 C   0  0  0  0  0  0
   38.6010   50.3820   35.2160 C   0  0  2  0  0  0
   39.6710   49.6050   35.9940 C   0  0  0  0  0  0
   40.9720   50.2350   35.5880 C   0  0  0  0  0  0
   40.5890   51.6600   35.2490 C   0  0  2  0  0  0
   40.7970   52.6510   36.4080 C   0  0  0  0  0  0
   37.1220   51.5640   36.6870 O   0  0  0  0  0  0
   39.2020   51.6530   34.8120 N   0  3  0  0  0  0
   36.3470   49.5380   35.8770 N   0  0  0  0  0  0
   42.8650   53.5420   37.4790 C   0  0  0  0  0  0
   42.2020   52.7040   36.5630 O   0  0  0  0  0  0
   35.0520   49.5430   36.5700 C   0  0  1  0  0  0
   34.3760   48.2400   36.1010 C   0  0  0  0  0  0
   35.4980   47.3440   35.5990 C   0  0  0  0  0  0
   36.5140   48.3250   35.0530 C   0  0  0  0  0  0
   44.3220   53.4870   37.4900 C   0  0  0  0  0  0
   44.9990   54.3590   38.3990 C   0  0  0  0  0  0
   44.3180   55.2630   39.2530 C   0  0  0  0  0  0
   42.8980   55.2860   39.2240 C   0  0  0  0  0  0
   42.1870   54.4540   38.3490 C   0  0  0  0  0  0
   35.0640   49.4510   38.1100 C   0  0  0  0  0  0
   36.2010   49.3580   38.8280 N   0  0  0  0  0  0
   45.0700   56.1570   40.1730 C   0  0  0  0  0  0
   45.1420   52.5100   36.5610 C   0  0  0  0  0  0
   44.7440   52.7110   35.0790 C   0  0  0  0  0  0
   44.8970   51.0300   36.9690 C   0  0  0  0  0  0
   46.6860   52.7010   36.6310 C   0  0  0  0  0  0
   46.3050   56.1150   40.1790 O   0  0  0  0  0  0
   44.4440   56.9370   40.9160 O   0  5  0  0  0  0
   38.3980   49.8640   34.2790 H   0  0  0  0  0  0
   39.4890   49.7070   37.0630 H   0  0  0  0  0  0
   39.6300   48.5520   35.7170 H   0  0  0  0  0  0
   41.6760   50.1830   36.4190 H   0  0  0  0  0  0
   41.3830   49.7020   34.7310 H   0  0  0  0  0  0
   41.1490   51.9880   34.3730 H   0  0  0  0  0  0
   40.3770   53.6210   36.1380 H   0  0  0  0  0  0
   40.2980   52.2760   37.3010 H   0  0  0  0  0  0
   39.1540   51.7440   33.8080 H   0  0  0  0  0  0
   38.7000   52.4150   35.2430 H   0  0  0  0  0  0
   34.4540   50.3820   36.2160 H   0  0  0  0  0  0
   33.8510   47.7810   36.9390 H   0  0  0  0  0  0
   33.6650   48.4650   35.3070 H   0  0  0  0  0  0
   35.8930   46.7560   36.4270 H   0  0  0  0  0  0
   35.1110   46.6750   34.8300 H   0  0  0  0  0  0
   36.3220   48.5670   34.0070 H   0  0  0  0  0  0
   37.5330   47.9520   35.1580 H   0  0  0  0  0  0
   46.0780   54.3470   38.4570 H   0  0  0  0  0  0
   42.3550   55.9500   39.8810 H   0  0  0  0  0  0
   41.1080   54.5090   38.3380 H   0  0  0  0  0  0
   37.0940   49.3370   38.3580 H   0  0  0  0  0  0
   45.3190   52.0290   34.4520 H   0  0  0  0  0  0
   43.6800   52.5060   34.9560 H   0  0  0  0  0  0
   44.9510   53.7390   34.7820 H   0  0  0  0  0  0
   45.4710   50.3730   36.3160 H   0  0  0  0  0  0
   45.2110   50.8810   38.0020 H   0  0  0  0  0  0
   43.8360   50.7980   36.8750 H   0  0  0  0  0  0
   47.1700   51.9900   35.9620 H   0  0  0  0  0  0
   46.9410   53.7160   36.3280 H   0  0  0  0  0  0
   47.0270   52.5300   37.6520 H   0  0  0  0  0  0
   34.1078   49.4635   38.6120 H   0  0  0  0  0  0
  1  2  1  0  0  0
  1  7  2  0  0  0
  1  9  1  0  0  0
  2  3  1  0  0  0
  2  8  1  0  0  0
  2 30  1  0  0  0
  3  4  1  0  0  0
  3 31  1  0  0  0
  3 32  1  0  0  0
  4  5  1  0  0  0
  4 33  1  0  0  0
  4 34  1  0  0  0
  5  6  1  0  0  0
  5  8  1  0  0  0
  5 35  1  0  0  0
  6 11  1  0  0  0
  6 36  1  0  0  0
  6 37  1  0  0  0
  8 38  1  0  0  0
  8 39  1  0  0  0
  9 12  1  0  0  0
  9 15  1  0  0  0
 10 11  1  0  0  0
 10 16  2  0  0  0
 10 20  1  0  0  0
 12 13  1  0  0  0
 12 21  1  0  0  0
 12 40  1  0  0  0
 13 14  1  0  0  0
 13 41  1  0  0  0
 13 42  1  0  0  0
 14 15  1  0  0  0
 14 43  1  0  0  0
 14 44  1  0  0  0
 15 45  1  0  0  0
 15 46  1  0  0  0
 16 17  1  0  0  0
 16 24  1  0  0  0
 17 18  2  0  0  0
 17 47  1  0  0  0
 18 19  1  0  0  0
 18 23  1  0  0  0
 19 20  2  0  0  0
 19 48  1  0  0  0
 20 49  1  0  0  0
 21 22  2  0  0  0
 21 60  1  0  0  0
 22 50  1  0  0  0
 23 28  2  0  0  0
 23 29  1  0  0  0
 24 25  1  0  0  0
 24 26  1  0  0  0
 24 27  1  0  0  0
 25 51  1  0  0  0
 25 52  1  0  0  0
 25 53  1  0  0  0
 26 54  1  0  0  0
 26 55  1  0  0  0
 26 56  1  0  0  0
 27 57  1  0  0  0
 27 58  1  0  0  0
 27 59  1  0  0  0
M  CHG  2   8   1  29  -1
M  END
> <s_m_entry_id>
6

> <s_m_entry_name>
P27487.6

$$$$
2g5t_lig_ACF
                    3D
 Structure written by MMmdl.
 48 50  0  0  1  0            999 V2000
   37.1880   50.7040   35.9410 C   0  0  0  0  0  0
   38.5520   50.8420   35.1800 C   0  0  2  0  0  0
   39.6980   49.9520   35.6960 C   0  0  0  0  0  0
   40.9460   50.6820   35.2340 C   0  0  0  0  0  0
   40.5480   52.1650   35.2370 C   0  0  2  0  0  0
   41.0770   52.9480   36.4380 C   0  0  0  0  0  0
   36.7340   51.6850   36.5040 O   0  0  0  0  0  0
   39.0880   52.2060   35.2290 N   0  3  0  0  0  0
   36.5250   49.4550   35.9360 N   0  0  0  0  0  0
   40.9000   52.9030   38.8570 C   0  0  0  0  0  0
   40.5530   52.3620   37.6100 O   0  0  0  0  0  0
   40.3420   52.2780   40.0070 C   0  0  0  0  0  0
   40.6260   52.7470   41.3120 C   0  0  0  0  0  0
   41.4810   53.8600   41.4830 C   0  0  0  0  0  0
   42.0580   54.5090   40.3580 C   0  0  0  0  0  0
   41.7600   54.0240   39.0570 C   0  0  0  0  0  0
   35.2120   49.2250   36.6080 C   0  0  1  0  0  0
   34.9170   47.7440   36.2630 C   0  0  0  0  0  0
   35.6860   47.4980   34.9920 C   0  0  0  0  0  0
   36.9770   48.2370   35.2750 C   0  0  0  0  0  0
   35.1730   49.2660   38.1410 C   0  0  0  0  0  0
   36.2770   49.0380   38.8520 N   0  0  0  0  0  0
   42.9580   55.6790   40.5260 C   0  0  0  0  0  0
   39.2850   50.9040   39.8310 Cl  0  0  0  0  0  0
   43.4400   56.2090   39.5280 O   0  0  0  0  0  0
   43.2020   56.0880   41.6550 O   0  5  0  0  0  0
   38.4100   50.5860   34.1300 H   0  0  0  0  0  0
   39.6390   49.8760   36.7820 H   0  0  0  0  0  0
   39.6120   48.9580   35.2570 H   0  0  0  0  0  0
   41.7630   50.4800   35.9260 H   0  0  0  0  0  0
   41.2200   50.3380   34.2370 H   0  0  0  0  0  0
   40.9210   52.6440   34.3320 H   0  0  0  0  0  0
   42.1660   52.9050   36.4510 H   0  0  0  0  0  0
   40.7570   53.9870   36.3640 H   0  0  0  0  0  0
   38.7730   52.7210   34.4190 H   0  0  0  0  0  0
   38.7620   52.6660   36.0680 H   0  0  0  0  0  0
   40.1900   52.2550   42.1690 H   0  0  0  0  0  0
   41.7000   54.2240   42.4760 H   0  0  0  0  0  0
   42.2020   54.5230   38.2070 H   0  0  0  0  0  0
   34.4450   49.8280   36.1240 H   0  0  0  0  0  0
   35.2600   47.1050   37.0770 H   0  0  0  0  0  0
   33.8450   47.6100   36.1230 H   0  0  0  0  0  0
   35.8230   46.4270   34.8520 H   0  0  0  0  0  0
   35.1310   47.9060   34.1470 H   0  0  0  0  0  0
   37.5180   48.4960   34.3650 H   0  0  0  0  0  0
   37.6370   47.6830   35.9440 H   0  0  0  0  0  0
   37.1590   48.8870   38.3820 H   0  0  0  0  0  0
   34.2418   49.4816   38.6438 H   0  0  0  0  0  0
  1  2  1  0  0  0
  1  7  2  0  0  0
  1  9  1  0  0  0
  2  3  1  0  0  0
  2  8  1  0  0  0
  2 27  1  0  0  0
  3  4  1  0  0  0
  3 28  1  0  0  0
  3 29  1  0  0  0
  4  5  1  0  0  0
  4 30  1  0  0  0
  4 31  1  0  0  0
  5  6  1  0  0  0
  5  8  1  0  0  0
  5 32  1  0  0  0
  6 11  1  0  0  0
  6 33  1  0  0  0
  6 34  1  0  0  0
  8 35  1  0  0  0
  8 36  1  0  0  0
  9 17  1  0  0  0
  9 20  1  0  0  0
 10 11  1  0  0  0
 10 12  2  0  0  0
 10 16  1  0  0  0
 12 13  1  0  0  0
 12 24  1  0  0  0
 13 14  2  0  0  0
 13 37  1  0  0  0
 14 15  1  0  0  0
 14 38  1  0  0  0
 15 16  2  0  0  0
 15 23  1  0  0  0
 16 39  1  0  0  0
 17 18  1  0  0  0
 17 21  1  0  0  0
 17 40  1  0  0  0
 18 19  1  0  0  0
 18 41  1  0  0  0
 18 42  1  0  0  0
 19 20  1  0  0  0
 19 43  1  0  0  0
 19 44  1  0  0  0
 20 45  1  0  0  0
 20 46  1  0  0  0
 21 22  2  0  0  0
 21 48  1  0  0  0
 22 47  1  0  0  0
 23 25  2  0  0  0
 23 26  1  0  0  0
M  CHG  2   8   1  26  -1
M  END
> <s_m_entry_id>
7

> <s_m_entry_name>
P27487.7

$$$$
2g63_lig_AAF
                    3D
 Structure written by MMmdl.
 57 59  0  0  1  0            999 V2000
   37.3480   50.7530   35.9820 C   0  0  0  0  0  0
   38.7000   50.7520   35.2020 C   0  0  2  0  0  0
   39.8100   49.9830   35.9360 C   0  0  0  0  0  0
   41.0730   50.7300   35.5410 C   0  0  0  0  0  0
   40.6290   52.1850   35.2850 C   0  0  2  0  0  0
   40.9210   53.1770   36.4710 C   0  0  0  0  0  0
   37.0920   51.7360   36.6710 O   0  0  0  0  0  0
   39.1840   52.1360   35.0490 N   0  3  0  0  0  0
   36.4810   49.6490   35.8570 N   0  0  0  0  0  0
   35.1800   49.5720   36.5480 C   0  0  1  0  0  0
   34.5600   48.2380   36.0790 C   0  0  0  0  0  0
   35.5790   47.5110   35.2260 C   0  0  0  0  0  0
   36.7470   48.4690   35.0360 C   0  0  0  0  0  0
   35.1730   49.4540   38.1030 C   0  0  0  0  0  0
   40.2490   52.8050   37.7450 N   0  0  0  0  0  0
   40.8180   51.9910   38.6810 C   0  0  0  0  0  0
   41.9280   51.5050   38.5020 O   0  0  0  0  0  0
   36.2950   49.3790   38.8370 N   0  0  0  0  0  0
   40.0080   51.7150   39.7650 N   0  0  0  0  0  0
   40.2550   50.8230   40.8020 C   0  0  0  0  0  0
   39.1460   50.4650   41.6140 C   0  0  0  0  0  0
   39.2970   49.5420   42.6830 C   0  0  0  0  0  0
   40.5730   48.9610   42.9620 C   0  0  0  0  0  0
   41.6880   49.3210   42.1480 C   0  0  0  0  0  0
   41.5340   50.2380   41.0920 C   0  0  0  0  0  0
   40.7120   47.9860   44.0710 C   0  0  0  0  0  0
   39.7830   47.6700   44.7640 O   0  0  0  0  0  0
   41.9590   47.5130   44.2110 O   0  0  0  0  0  0
   42.2620   46.5600   45.2350 C   0  0  0  0  0  0
   38.5650   50.2570   34.2410 H   0  0  0  0  0  0
   39.6260   50.0150   37.0100 H   0  0  0  0  0  0
   39.8170   48.9460   35.6000 H   0  0  0  0  0  0
   41.7990   50.6730   36.3530 H   0  0  0  0  0  0
   41.4970   50.2800   34.6430 H   0  0  0  0  0  0
   41.1430   52.5730   34.4060 H   0  0  0  0  0  0
   41.9930   53.2030   36.6670 H   0  0  0  0  0  0
   40.5770   54.1760   36.2030 H   0  0  0  0  0  0
   38.9880   52.4600   34.1130 H   0  0  0  0  0  0
   38.7170   52.7330   35.7170 H   0  0  0  0  0  0
   34.5310   50.3730   36.1930 H   0  0  0  0  0  0
   34.3020   47.6320   36.9480 H   0  0  0  0  0  0
   33.6610   48.4390   35.4970 H   0  0  0  0  0  0
   35.8990   46.6020   35.7350 H   0  0  0  0  0  0
   35.1310   47.2500   34.2670 H   0  0  0  0  0  0
   36.8330   48.7650   33.9910 H   0  0  0  0  0  0
   37.6780   48.0040   35.3600 H   0  0  0  0  0  0
   39.3270   53.1870   37.9010 H   0  0  0  0  0  0
   37.1970   49.3720   38.3820 H   0  0  0  0  0  0
   39.1220   52.1890   39.8670 H   0  0  0  0  0  0
   38.1750   50.8970   41.4220 H   0  0  0  0  0  0
   38.4440   49.2750   43.2900 H   0  0  0  0  0  0
   42.6580   48.8890   42.3410 H   0  0  0  0  0  0
   42.3950   50.5010   40.4960 H   0  0  0  0  0  0
   43.3190   46.2990   45.1880 H   0  0  0  0  0  0
   42.0380   46.9910   46.2110 H   0  0  0  0  0  0
   41.6600   45.6640   45.0880 H   0  0  0  0  0  0
   34.2082   49.4337   38.5879 H   0  0  0  0  0  0
  1  2  1  0  0  0
  1  7  2  0  0  0
  1  9  1  0  0  0
  2  3  1  0  0  0
  2  8  1  0  0  0
  2 30  1  0  0  0
  3  4  1  0  0  0
  3 31  1  0  0  0
  3 32  1  0  0  0
  4  5  1  0  0  0
  4 33  1  0  0  0
  4 34  1  0  0  0
  5  6  1  0  0  0
  5  8  1  0  0  0
  5 35  1  0  0  0
  6 15  1  0  0  0
  6 36  1  0  0  0
  6 37  1  0  0  0
  8 38  1  0  0  0
  8 39  1  0  0  0
  9 10  1  0  0  0
  9 13  1  0  0  0
 10 11  1  0  0  0
 10 14  1  0  0  0
 10 40  1  0  0  0
 11 12  1  0  0  0
 11 41  1  0  0  0
 11 42  1  0  0  0
 12 13  1  0  0  0
 12 43  1  0  0  0
 12 44  1  0  0  0
 13 45  1  0  0  0
 13 46  1  0  0  0
 14 18  2  0  0  0
 14 57  1  0  0  0
 15 16  1  0  0  0
 15 47  1  0  0  0
 16 17  2  0  0  0
 16 19  1  0  0  0
 18 48  1  0  0  0
 19 20  1  0  0  0
 19 49  1  0  0  0
 20 21  2  0  0  0
 20 25  1  0  0  0
 21 22  1  0  0  0
 21 50  1  0  0  0
 22 23  2  0  0  0
 22 51  1  0  0  0
 23 24  1  0  0  0
 23 26  1  0  0  0
 24 25  2  0  0  0
 24 52  1  0  0  0
 25 53  1  0  0  0
 26 27  2  0  0  0
 26 28  1  0  0  0
 28 29  1  0  0  0
 29 54  1  0  0  0
 29 55  1  0  0  0
 29 56  1  0  0  0
M  CHG  1   8   1
M  END
> <s_m_entry_id>
8

> <s_m_entry_name>
P27487.8

$$$$
2hha_lig_3TP
                    3D
 Structure written by MMmdl.
 49 51  0  0  1  0            999 V2000
   38.6400   51.2580   35.2260 C   0  0  2  0  0  0
   37.2460   51.2170   35.9460 C   0  0  0  0  0  0
   36.8510   52.1980   36.5770 O   0  0  0  0  0  0
   36.9090   48.8560   35.0960 C   0  0  0  0  0  0
   35.7560   47.8670   35.2490 C   0  0  0  0  0  0
   34.6770   48.5590   36.0900 C   0  0  0  0  0  0
   35.1950   49.9540   36.4330 C   0  0  0  0  0  0
   40.2760   50.5660   37.0030 C   0  0  0  0  0  0
   40.8700   49.2610   38.5500 C   0  0  0  0  0  0
   41.1650   48.6850   39.8700 C   0  0  0  0  0  0
   40.2520   48.9410   40.9310 C   0  0  0  0  0  0
   40.4460   48.3710   42.1920 C   0  0  0  0  0  0
   42.5040   47.2790   41.3710 C   0  0  0  0  0  0
   42.2970   47.8550   40.0920 C   0  0  0  0  0  0
   39.8030   51.7410   36.1370 C   0  0  1  0  0  0
   36.5050   50.0660   35.8280 N   0  0  0  0  0  0
   38.4330   52.1150   34.0760 N   0  3  0  0  0  0
   40.4370   50.5270   38.3370 N   0  0  0  0  0  0
   40.9740   48.5440   37.3950 N   0  0  0  0  0  0
   40.5770   49.4170   36.3610 O   0  0  0  0  0  0
   41.5610   47.5350   42.4120 C   0  0  0  0  0  0
   41.7440   46.7890   44.0000 S   0  0  0  0  0  0
   41.8760   45.3930   43.8300 O   0  0  0  0  0  0
   40.6020   47.2040   44.7940 O   0  0  0  0  0  0
   43.2190   47.5470   44.6390 C   0  0  0  0  0  0
   40.9850   52.2930   35.2790 C   0  0  0  0  0  0
   38.8700   50.2730   34.8200 H   0  0  0  0  0  0
   37.8160   48.4250   35.5180 H   0  0  0  0  0  0
   37.0670   49.0700   34.0390 H   0  0  0  0  0  0
   35.3670   47.6060   34.2640 H   0  0  0  0  0  0
   36.1130   46.9660   35.7480 H   0  0  0  0  0  0
   33.7540   48.6250   35.5150 H   0  0  0  0  0  0
   34.4990   47.9840   36.9980 H   0  0  0  0  0  0
   34.5140   50.7040   36.0290 H   0  0  0  0  0  0
   35.2560   50.0640   37.5150 H   0  0  0  0  0  0
   39.3980   49.5820   40.7660 H   0  0  0  0  0  0
   39.7450   48.5720   42.9890 H   0  0  0  0  0  0
   43.3670   46.6550   41.5490 H   0  0  0  0  0  0
   42.9950   47.6670   39.2890 H   0  0  0  0  0  0
   39.4590   52.5700   36.7570 H   0  0  0  0  0  0
   39.2940   52.1940   33.5540 H   0  0  0  0  0  0
   37.7170   51.7180   33.4850 H   0  0  0  0  0  0
   38.1430   53.0320   34.3870 H   0  0  0  0  0  0
   43.4290   47.1520   45.6320 H   0  0  0  0  0  0
   44.0560   47.3280   43.9760 H   0  0  0  0  0  0
   43.0760   48.6270   44.6990 H   0  0  0  0  0  0
   41.7880   52.6260   35.9370 H   0  0  0  0  0  0
   41.3560   51.5070   34.6220 H   0  0  0  0  0  0
   40.6360   53.1330   34.6770 H   0  0  0  0  0  0
  1  2  1  0  0  0
  1 15  1  0  0  0
  1 17  1  0  0  0
  1 27  1  0  0  0
  2  3  2  0  0  0
  2 16  1  0  0  0
  4  5  1  0  0  0
  4 16  1  0  0  0
  4 28  1  0  0  0
  4 29  1  0  0  0
  5  6  1  0  0  0
  5 30  1  0  0  0
  5 31  1  0  0  0
  6  7  1  0  0  0
  6 32  1  0  0  0
  6 33  1  0  0  0
  7 16  1  0  0  0
  7 34  1  0  0  0
  7 35  1  0  0  0
  8 15  1  0  0  0
  8 18  2  0  0  0
  8 20  1  0  0  0
  9 10  1  0  0  0
  9 18  1  0  0  0
  9 19  2  0  0  0
 10 11  2  0  0  0
 10 14  1  0  0  0
 11 12  1  0  0  0
 11 36  1  0  0  0
 12 21  2  0  0  0
 12 37  1  0  0  0
 13 14  2  0  0  0
 13 21  1  0  0  0
 13 38  1  0  0  0
 14 39  1  0  0  0
 15 26  1  0  0  0
 15 40  1  0  0  0
 17 41  1  0  0  0
 17 42  1  0  0  0
 17 43  1  0  0  0
 19 20  1  0  0  0
 21 22  1  0  0  0
 22 23  2  0  0  0
 22 24  2  0  0  0
 22 25  1  0  0  0
 25 44  1  0  0  0
 25 45  1  0  0  0
 25 46  1  0  0  0
 26 47  1  0  0  0
 26 48  1  0  0  0
 26 49  1  0  0  0
M  CHG  1  17   1
M  END
> <s_m_entry_id>
9

> <s_m_entry_name>
P27487.9

$$$$
2i03_lig_AXD
                    3D
 Structure written by MMmdl.
 56 58  0  0  1  0            999 V2000
   39.4890   51.5070   34.9400 N   0  3  0  0  0  0
   40.5450   51.4010   35.9830 C   0  0  0  0  0  0
   41.4280   52.6570   35.8940 C   0  0  0  0  0  0
   42.5270   52.6220   36.9710 C   0  0  0  0  0  0
   41.9380   52.4220   38.3550 N   0  0  0  0  0  0
   41.0000   51.2670   38.5270 C   0  0  0  0  0  0
   39.9360   51.3310   37.4320 C   0  0  0  0  0  0
   36.5730   48.1760   35.3940 C   0  0  2  0  0  0
   36.3670   49.5880   35.8280 N   0  0  0  0  0  0
   35.0800   49.7550   36.5120 C   0  0  1  0  0  0
   34.2720   48.6270   35.8600 C   0  0  0  0  0  0
   35.2730   47.4800   35.8270 C   0  0  0  0  0  0
   35.1350   49.5380   38.0560 C   0  0  0  0  0  0
   36.2890   49.3170   38.7040 N   0  0  0  0  0  0
   37.2070   50.6670   35.6140 C   0  0  0  0  0  0
   36.9760   51.7910   36.0220 O   0  0  0  0  0  0
   38.4960   50.4480   34.7800 C   0  0  0  0  0  0
   42.2510   53.2750   39.4270 C   0  0  0  0  0  0
   43.1400   54.3570   39.2570 C   0  0  0  0  0  0
   43.4460   55.2050   40.3340 C   0  0  0  0  0  0
   42.8520   54.9630   41.6120 C   0  0  0  0  0  0
   41.9680   53.8590   41.7360 C   0  0  0  0  0  0
   41.6800   53.0340   40.6720 N   0  0  0  0  0  0
   37.6680   47.5150   36.1530 C   0  0  0  0  0  0
   38.5290   47.0410   36.8440 C   0  0  0  0  0  0
   41.4210   50.1320   35.6920 C   0  0  0  0  0  0
   44.3870   56.3160   40.1010 C   0  0  0  0  0  0
   44.8880   56.4580   38.9570 O   0  0  0  0  0  0
   44.6680   57.0850   41.0360 O   0  5  0  0  0  0
   38.9330   52.3340   35.1050 H   0  0  0  0  0  0
   39.9210   51.5690   34.0280 H   0  0  0  0  0  0
   41.8970   52.7030   34.9120 H   0  0  0  0  0  0
   40.8140   53.5450   36.0450 H   0  0  0  0  0  0
   43.2130   51.8010   36.7650 H   0  0  0  0  0  0
   43.0750   53.5650   36.9610 H   0  0  0  0  0  0
   41.5550   50.3330   38.4490 H   0  0  0  0  0  0
   40.5260   51.3270   39.5070 H   0  0  0  0  0  0
   39.3270   52.2160   37.6140 H   0  0  0  0  0  0
   39.3160   50.4390   37.5230 H   0  0  0  0  0  0
   36.6120   48.1320   34.3050 H   0  0  0  0  0  0
   34.6650   50.7350   36.2730 H   0  0  0  0  0  0
   33.3960   48.4060   36.4710 H   0  0  0  0  0  0
   33.9510   48.9370   34.8660 H   0  0  0  0  0  0
   35.0100   46.7140   35.0970 H   0  0  0  0  0  0
   35.4150   47.0170   36.8030 H   0  0  0  0  0  0
   37.1620   49.3220   38.1960 H   0  0  0  0  0  0
   38.1960   50.3850   33.7340 H   0  0  0  0  0  0
   38.9250   49.4970   35.0930 H   0  0  0  0  0  0
   43.5920   54.5390   38.2940 H   0  0  0  0  0  0
   43.0800   55.6100   42.4450 H   0  0  0  0  0  0
   41.5000   53.6460   42.6860 H   0  0  0  0  0  0
   39.2870   46.6250   37.4520 H   0  0  0  0  0  0
   42.1990   50.0450   36.4510 H   0  0  0  0  0  0
   40.7920   49.2420   35.7130 H   0  0  0  0  0  0
   41.8830   50.2270   34.7090 H   0  0  0  0  0  0
   34.2052   49.5700   38.6045 H   0  0  0  0  0  0
  1  2  1  0  0  0
  1 17  1  0  0  0
  1 30  1  0  0  0
  1 31  1  0  0  0
  2  3  1  0  0  0
  2  7  1  0  0  0
  2 26  1  0  0  0
  3  4  1  0  0  0
  3 32  1  0  0  0
  3 33  1  0  0  0
  4  5  1  0  0  0
  4 34  1  0  0  0
  4 35  1  0  0  0
  5  6  1  0  0  0
  5 18  1  0  0  0
  6  7  1  0  0  0
  6 36  1  0  0  0
  6 37  1  0  0  0
  7 38  1  0  0  0
  7 39  1  0  0  0
  8  9  1  0  0  0
  8 12  1  0  0  0
  8 24  1  0  0  0
  8 40  1  0  0  0
  9 10  1  0  0  0
  9 15  1  0  0  0
 10 11  1  0  0  0
 10 13  1  0  0  0
 10 41  1  0  0  0
 11 12  1  0  0  0
 11 42  1  0  0  0
 11 43  1  0  0  0
 12 44  1  0  0  0
 12 45  1  0  0  0
 13 14  2  0  0  0
 13 56  1  0  0  0
 14 46  1  0  0  0
 15 16  2  0  0  0
 15 17  1  0  0  0
 17 47  1  0  0  0
 17 48  1  0  0  0
 18 19  2  0  0  0
 18 23  1  0  0  0
 19 20  1  0  0  0
 19 49  1  0  0  0
 20 21  2  0  0  0
 20 27  1  0  0  0
 21 22  1  0  0  0
 21 50  1  0  0  0
 22 23  2  0  0  0
 22 51  1  0  0  0
 24 25  3  0  0  0
 25 52  1  0  0  0
 26 53  1  0  0  0
 26 54  1  0  0  0
 26 55  1  0  0  0
 27 28  2  0  0  0
 27 29  1  0  0  0
M  CHG  2   1   1  29  -1
M  END
> <s_m_entry_id>
10

> <s_m_entry_name>
P27487.10

$$$$
2i78_lig_KIQ
                    3D
 Structure written by MMmdl.
 49 52  0  0  1  0            999 V2000
   41.8790   50.8590   35.9660 C   0  0  0  0  0  0
   43.2940   51.1270   35.7010 C   0  0  0  0  0  0
   43.7550   51.4990   38.1210 C   0  0  0  0  0  0
   47.0940   50.1830   39.2780 C   0  0  0  0  0  0
   41.4860   49.8740   36.8120 C   0  0  0  0  0  0
   40.0370   49.4680   36.9930 C   0  0  0  0  0  0
   39.0900   50.5320   36.4440 C   0  0  2  0  0  0
   37.3760   48.7530   36.0000 C   0  0  0  0  0  0
   36.9430   52.0990   37.2860 F   0  0  0  0  0  0
   36.6690   50.8640   36.8740 C   0  0  0  0  0  0
   35.3520   50.4280   36.8880 C   0  0  0  0  0  0
   35.0370   49.1450   36.4430 C   0  0  0  0  0  0
   33.7560   48.7050   36.4270 F   0  0  0  0  0  0
   36.0540   48.3170   36.0060 C   0  0  0  0  0  0
   35.7480   47.0830   35.5890 F   0  0  0  0  0  0
   37.6910   50.0380   36.4400 C   0  0  0  0  0  0
   39.5660   50.9490   35.0510 C   0  0  1  0  0  0
   38.6220   51.7790   34.3350 N   0  3  0  0  0  0
   40.8730   51.7100   35.2190 C   0  0  0  0  0  0
   43.6380   51.1540   34.5280 O   0  0  0  0  0  0
   44.1560   51.3710   36.7060 N   0  0  0  0  0  0
   45.5670   51.6250   36.3860 C   0  0  0  0  0  0
   46.4570   51.0570   37.4500 C   0  0  0  0  0  0
   47.8080   50.9110   37.3840 N   0  0  0  0  0  0
   48.2340   50.3350   38.5900 N   0  0  0  0  0  0
   47.1250   49.5920   40.6570 C   0  0  0  0  0  0
   46.8300   48.2990   40.6030 F   0  0  0  0  0  0
   46.3080   50.2300   41.4850 F   0  0  0  0  0  0
   48.3580   49.7450   41.0940 F   0  0  0  0  0  0
   46.0000   50.6050   38.6310 N   0  0  0  0  0  0
   44.5890   50.5980   39.0340 C   0  0  0  0  0  0
   43.8890   52.5310   38.4450 H   0  0  0  0  0  0
   42.7080   51.2180   38.2290 H   0  0  0  0  0  0
   42.2210   49.3390   37.3950 H   0  0  0  0  0  0
   39.8520   48.5330   36.4640 H   0  0  0  0  0  0
   39.8270   49.3320   38.0530 H   0  0  0  0  0  0
   39.2000   51.4500   37.0220 H   0  0  0  0  0  0
   38.1600   48.0950   35.6550 H   0  0  0  0  0  0
   34.5700   51.0830   37.2430 H   0  0  0  0  0  0
   39.7580   50.0590   34.4500 H   0  0  0  0  0  0
   39.0000   52.0150   33.4280 H   0  0  0  0  0  0
   37.7530   51.2770   34.2160 H   0  0  0  0  0  0
   38.4520   52.6250   34.8580 H   0  0  0  0  0  0
   40.6840   52.6260   35.7790 H   0  0  0  0  0  0
   41.2690   51.9630   34.2350 H   0  0  0  0  0  0
   45.8130   51.1580   35.4330 H   0  0  0  0  0  0
   45.7360   52.7000   36.3180 H   0  0  0  0  0  0
   44.5170   50.9550   40.0610 H   0  0  0  0  0  0
   44.2140   49.5760   38.9790 H   0  0  0  0  0  0
  1  2  1  0  0  0
  1  5  2  0  0  0
  1 19  1  0  0  0
  2 20  2  0  0  0
  2 21  1  0  0  0
  3 21  1  0  0  0
  3 31  1  0  0  0
  3 32  1  0  0  0
  3 33  1  0  0  0
  4 25  2  0  0  0
  4 26  1  0  0  0
  4 30  1  0  0  0
  5  6  1  0  0  0
  5 34  1  0  0  0
  6  7  1  0  0  0
  6 35  1  0  0  0
  6 36  1  0  0  0
  7 16  1  0  0  0
  7 17  1  0  0  0
  7 37  1  0  0  0
  8 14  2  0  0  0
  8 16  1  0  0  0
  8 38  1  0  0  0
  9 10  1  0  0  0
 10 11  1  0  0  0
 10 16  2  0  0  0
 11 12  2  0  0  0
 11 39  1  0  0  0
 12 13  1  0  0  0
 12 14  1  0  0  0
 14 15  1  0  0  0
 17 18  1  0  0  0
 17 19  1  0  0  0
 17 40  1  0  0  0
 18 41  1  0  0  0
 18 42  1  0  0  0
 18 43  1  0  0  0
 19 44  1  0  0  0
 19 45  1  0  0  0
 21 22  1  0  0  0
 22 23  1  0  0  0
 22 46  1  0  0  0
 22 47  1  0  0  0
 23 24  2  0  0  0
 23 30  1  0  0  0
 24 25  1  0  0  0
 26 27  1  0  0  0
 26 28  1  0  0  0
 26 29  1  0  0  0
 30 31  1  0  0  0
 31 48  1  0  0  0
 31 49  1  0  0  0
M  CHG  1  18   1
M  END
> <s_m_entry_id>
11

> <s_m_entry_name>
P27487.11

$$$$
2iit_lig_872
                    3D
 Structure written by MMmdl.
 48 50  0  0  1  0            999 V2000
   34.4800   50.5310   36.7510 C   0  0  0  0  0  0
   35.8120   51.0460   36.7870 C   0  0  0  0  0  0
   36.9780   50.2320   36.5120 C   0  0  0  0  0  0
   36.7840   48.8600   36.1940 C   0  0  0  0  0  0
   35.4650   48.3350   36.1570 C   0  0  0  0  0  0
   34.3230   49.1520   36.4260 C   0  0  0  0  0  0
   35.3010   47.0670   35.8580 F   0  0  0  0  0  0
   35.9810   52.3180   37.0910 F   0  0  0  0  0  0
   38.3640   50.8030   36.5450 C   0  0  0  0  0  0
   39.0320   51.0820   35.1170 C   0  0  0  0  0  0
   40.3150   51.8840   35.4080 C   0  0  0  0  0  0
   41.4820   51.0860   36.1450 C   0  0  0  0  0  0
   42.6710   51.7860   36.4880 N   0  0  0  0  0  0
   38.1860   51.8180   34.5220 N   0  3  0  0  0  0
   41.3210   49.8870   36.4240 O   0  0  0  0  0  0
   43.1740   52.8980   35.5980 C   0  0  0  0  0  0
   44.0980   52.3670   34.5080 C   0  0  0  0  0  0
   45.3060   51.6320   35.0980 C   0  0  0  0  0  0
   45.0120   50.8540   36.2990 N   0  0  0  0  0  0
   44.8180   50.7530   37.5720 C   0  0  0  0  0  0
   43.3470   51.3190   37.7880 C   0  0  0  0  0  0
   42.9690   51.2650   39.3290 C   0  0  0  0  0  0
   45.4850   50.3530   38.4990 O   0  0  0  0  0  0
   33.1140   48.6170   36.3770 F   0  0  0  0  0  0
   41.6800   50.5270   39.7160 C   0  0  0  0  0  0
   41.5240   50.5740   41.0240 F   0  0  0  0  0  0
   41.7400   49.2540   39.3680 F   0  0  0  0  0  0
   40.6170   51.0560   39.1450 F   0  0  0  0  0  0
   33.6450   51.1810   36.9660 H   0  0  0  0  0  0
   37.6350   48.2300   35.9830 H   0  0  0  0  0  0
   38.3510   51.7590   37.0700 H   0  0  0  0  0  0
   39.0290   50.1130   37.0650 H   0  0  0  0  0  0
   39.3270   50.1360   34.6620 H   0  0  0  0  0  0
   40.7380   52.2450   34.4710 H   0  0  0  0  0  0
   40.0760   52.7330   36.0490 H   0  0  0  0  0  0
   38.5290   52.0470   33.6000 H   0  0  0  0  0  0
   37.3080   51.3260   34.4420 H   0  0  0  0  0  0
   38.0490   52.6680   35.0500 H   0  0  0  0  0  0
   42.3280   53.3930   35.1210 H   0  0  0  0  0  0
   43.7280   53.6210   36.1970 H   0  0  0  0  0  0
   43.5500   51.6700   33.8740 H   0  0  0  0  0  0
   44.4640   53.1970   33.9040 H   0  0  0  0  0  0
   45.7060   50.9370   34.3600 H   0  0  0  0  0  0
   46.0760   52.3560   35.3700 H   0  0  0  0  0  0
   44.9590   50.0330   35.7130 H   0  0  0  0  0  0
   42.6610   51.4570   38.6240 H   0  0  0  0  0  0
   43.7650   50.7640   39.8810 H   0  0  0  0  0  0
   42.8460   52.2790   39.7100 H   0  0  0  0  0  0
  1  2  2  0  0  0
  1  6  1  0  0  0
  1 29  1  0  0  0
  2  3  1  0  0  0
  2  8  1  0  0  0
  3  4  2  0  0  0
  3  9  1  0  0  0
  4  5  1  0  0  0
  4 30  1  0  0  0
  5  6  2  0  0  0
  5  7  1  0  0  0
  6 24  1  0  0  0
  9 10  1  0  0  0
  9 31  1  0  0  0
  9 32  1  0  0  0
 10 11  1  0  0  0
 10 14  1  0  0  0
 10 33  1  0  0  0
 11 12  1  0  0  0
 11 34  1  0  0  0
 11 35  1  0  0  0
 12 13  1  0  0  0
 12 15  2  0  0  0
 13 16  1  0  0  0
 13 21  1  0  0  0
 14 36  1  0  0  0
 14 37  1  0  0  0
 14 38  1  0  0  0
 16 17  1  0  0  0
 16 39  1  0  0  0
 16 40  1  0  0  0
 17 18  1  0  0  0
 17 41  1  0  0  0
 17 42  1  0  0  0
 18 19  1  0  0  0
 18 43  1  0  0  0
 18 44  1  0  0  0
 19 20  1  0  0  0
 19 45  1  0  0  0
 20 21  1  0  0  0
 20 23  2  0  0  0
 21 22  1  0  0  0
 21 46  1  0  0  0
 22 25  1  0  0  0
 22 46  1  0  0  0
 22 47  1  0  0  0
 22 48  1  0  0  0
 25 26  1  0  0  0
 25 27  1  0  0  0
 25 28  1  0  0  0
M  CHG  1  14   1
M  END
> <s_m_entry_id>
12

> <s_m_entry_name>
P27487.12

$$$$
2iiv_lig_565
                    3D
 Structure written by MMmdl.
 45 46  0  0  1  0            999 V2000
   34.7110   50.6230   36.6380 C   0  0  0  0  0  0
   36.0640   51.1460   36.7810 C   0  0  0  0  0  0
   37.2550   50.3030   36.5760 C   0  0  0  0  0  0
   37.0860   48.8720   36.2060 C   0  0  0  0  0  0
   35.7490   48.3520   36.0690 C   0  0  0  0  0  0
   34.5690   49.2230   36.2720 C   0  0  0  0  0  0
   35.6020   47.0950   35.7420 F   0  0  0  0  0  0
   36.2110   52.4080   37.1110 F   0  0  0  0  0  0
   38.5850   50.9350   36.7230 C   0  0  0  0  0  0
   39.1520   51.1460   35.2410 C   0  0  2  0  0  0
   40.3640   51.7610   35.5160 C   0  0  0  0  0  0
   41.5680   50.8600   36.0990 C   0  0  0  0  0  0
   42.7930   51.4400   36.3100 N   0  0  0  0  0  0
   38.2090   51.9820   34.4430 N   0  3  0  0  0  0
   41.3400   49.6850   36.3470 O   0  0  0  0  0  0
   43.1760   52.9170   36.0120 C   0  0  0  0  0  0
   43.4950   52.8080   34.6020 C   0  0  0  0  0  0
   44.7610   52.0590   34.1940 C   0  0  0  0  0  0
   45.5710   51.5530   35.4040 N   0  0  0  0  0  0
   45.2630   50.8590   36.6120 C   0  0  0  0  0  0
   43.7390   50.4090   36.9480 C   0  0  1  0  0  0
   43.8230   50.3000   38.4780 C   0  0  0  0  0  0
   46.1900   50.6650   37.3190 O   0  0  0  0  0  0
   33.4010   48.7380   36.1350 F   0  0  0  0  0  0
   33.8620   51.2700   36.8040 H   0  0  0  0  0  0
   37.9540   48.2490   36.0470 H   0  0  0  0  0  0
   38.4790   51.8900   37.2400 H   0  0  0  0  0  0
   39.2380   50.2810   37.3000 H   0  0  0  0  0  0
   39.2370   50.1800   34.7430 H   0  0  0  0  0  0
   40.7640   52.2030   34.6030 H   0  0  0  0  0  0
   40.2150   52.5430   36.2620 H   0  0  0  0  0  0
   38.5760   52.1080   33.5110 H   0  0  0  0  0  0
   37.3110   51.5210   34.3920 H   0  0  0  0  0  0
   38.0990   52.8820   34.8870 H   0  0  0  0  0  0
   42.3260   53.5640   36.2260 H   0  0  0  0  0  0
   44.0200   53.2070   36.6370 H   0  0  0  0  0  0
   42.6880   52.2900   34.0860 H   0  0  0  0  0  0
   43.6160   53.8060   34.1780 H   0  0  0  0  0  0
   44.4920   51.1940   33.5880 H   0  0  0  0  0  0
   45.4050   52.7210   33.6160 H   0  0  0  0  0  0
   46.5240   51.8200   35.2050 H   0  0  0  0  0  0
   43.6220   49.4480   36.4460 H   0  0  0  0  0  0
   44.5380   49.5240   38.7490 H   0  0  0  0  0  0
   44.1490   51.2540   38.8930 H   0  0  0  0  0  0
   42.8420   50.0470   38.8790 H   0  0  0  0  0  0
  1  2  2  0  0  0
  1  6  1  0  0  0
  1 25  1  0  0  0
  2  3  1  0  0  0
  2  8  1  0  0  0
  3  4  2  0  0  0
  3  9  1  0  0  0
  4  5  1  0  0  0
  4 26  1  0  0  0
  5  6  2  0  0  0
  5  7  1  0  0  0
  6 24  1  0  0  0
  9 10  1  0  0  0
  9 27  1  0  0  0
  9 28  1  0  0  0
 10 11  1  0  0  0
 10 14  1  0  0  0
 10 29  1  0  0  0
 11 12  1  0  0  0
 11 30  1  0  0  0
 11 31  1  0  0  0
 12 13  1  0  0  0
 12 15  2  0  0  0
 13 16  1  0  0  0
 13 21  1  0  0  0
 14 32  1  0  0  0
 14 33  1  0  0  0
 14 34  1  0  0  0
 16 17  1  0  0  0
 16 35  1  0  0  0
 16 36  1  0  0  0
 17 18  1  0  0  0
 17 37  1  0  0  0
 17 38  1  0  0  0
 18 19  1  0  0  0
 18 39  1  0  0  0
 18 40  1  0  0  0
 19 20  1  0  0  0
 19 41  1  0  0  0
 20 21  1  0  0  0
 20 23  2  0  0  0
 21 22  1  0  0  0
 21 42  1  0  0  0
 22 43  1  0  0  0
 22 44  1  0  0  0
 22 45  1  0  0  0
M  CHG  1  14   1
M  END
> <s_m_entry_id>
13

> <s_m_entry_name>
P27487.13

$$$$
2oag_lig_DLI
                    3D
 Structure written by MMmdl.
 51 54  0  0  1  0            999 V2000
   36.1620   51.0030   36.7390 C   0  0  0  0  0  0
   34.8100   50.5780   36.8810 C   0  0  0  0  0  0
   34.5010   49.1990   36.6450 C   0  0  0  0  0  0
   38.5880   50.5940   36.2230 C   0  0  2  0  0  0
   39.7690   49.8540   36.7560 C   0  0  0  0  0  0
   49.7430   51.5460   37.0220 C   0  0  0  0  0  0
   43.7530   49.9140   37.9380 C   0  0  0  0  0  0
   43.1120   51.1530   35.5960 C   0  0  0  0  0  0
   45.5430   51.8310   35.2170 C   0  0  0  0  0  0
   46.3090   53.1160   33.2260 C   0  0  0  0  0  0
   47.9060   52.4660   34.9440 C   0  0  0  0  0  0
   35.5280   48.2790   36.2700 C   0  0  0  0  0  0
   36.8620   48.7130   36.1370 C   0  0  0  0  0  0
   37.1780   50.0830   36.3620 C   0  0  0  0  0  0
   38.8410   50.9710   34.7460 C   0  0  2  0  0  0
   36.5570   52.2890   36.9490 F   0  0  0  0  0  0
   40.8140   50.5200   35.9770 N   0  0  0  0  0  0
   40.3400   51.2060   34.7460 C   0  0  0  0  0  0
   33.2210   48.8130   36.7820 F   0  0  0  0  0  0
   42.1320   50.5180   36.3910 C   0  0  0  0  0  0
   35.3740   46.9630   36.0170 F   0  0  0  0  0  0
   42.4530   49.8760   37.5540 N   0  0  0  0  0  0
   44.7380   50.5110   37.2300 N   0  0  0  0  0  0
   44.4440   51.1680   36.0220 C   0  0  0  0  0  0
   37.9880   52.1110   34.3870 N   0  3  0  0  0  0
   45.2860   52.4910   33.9720 C   0  0  0  0  0  0
   47.6250   53.1080   33.7130 C   0  0  0  0  0  0
   46.8760   51.8360   35.6810 C   0  0  0  0  0  0
   49.5890   52.5020   35.5120 S   0  0  0  0  0  0
   49.8830   53.8720   35.8210 O   0  0  0  0  0  0
   50.3790   51.8580   34.5070 O   0  0  0  0  0  0
   34.0470   51.2890   37.1590 H   0  0  0  0  0  0
   38.6250   51.6290   36.5620 H   0  0  0  0  0  0
   39.8380   50.0070   37.8330 H   0  0  0  0  0  0
   39.6560   48.7900   36.5470 H   0  0  0  0  0  0
   50.7770   51.5720   37.3660 H   0  0  0  0  0  0
   49.0950   51.9710   37.7890 H   0  0  0  0  0  0
   49.4500   50.5140   36.8310 H   0  0  0  0  0  0
   44.0570   49.4480   38.8650 H   0  0  0  0  0  0
   42.8310   51.6240   34.6660 H   0  0  0  0  0  0
   46.0760   53.5970   32.2870 H   0  0  0  0  0  0
   37.6350   48.0090   35.8660 H   0  0  0  0  0  0
   38.4670   50.1780   34.0980 H   0  0  0  0  0  0
   40.7750   50.7760   33.8440 H   0  0  0  0  0  0
   40.5400   52.2760   34.7710 H   0  0  0  0  0  0
   38.1490   52.3620   33.4220 H   0  0  0  0  0  0
   37.0190   51.8590   34.5110 H   0  0  0  0  0  0
   38.2100   52.8980   34.9800 H   0  0  0  0  0  0
   44.2820   52.5210   33.5740 H   0  0  0  0  0  0
   48.4120   53.5880   33.1500 H   0  0  0  0  0  0
   47.1250   51.3550   36.6150 H   0  0  0  0  0  0
  1  2  2  0  0  0
  1 14  1  0  0  0
  1 16  1  0  0  0
  2  3  1  0  0  0
  2 32  1  0  0  0
  3 12  2  0  0  0
  3 19  1  0  0  0
  4  5  1  0  0  0
  4 14  1  0  0  0
  4 15  1  0  0  0
  4 33  1  0  0  0
  5 17  1  0  0  0
  5 34  1  0  0  0
  5 35  1  0  0  0
  6 29  1  0  0  0
  6 36  1  0  0  0
  6 37  1  0  0  0
  6 38  1  0  0  0
  7 22  2  0  0  0
  7 23  1  0  0  0
  7 39  1  0  0  0
  8 20  2  0  0  0
  8 24  1  0  0  0
  8 40  1  0  0  0
  9 24  1  0  0  0
  9 26  2  0  0  0
  9 28  1  0  0  0
 10 26  1  0  0  0
 10 27  2  0  0  0
 10 41  1  0  0  0
 11 27  1  0  0  0
 11 28  2  0  0  0
 11 29  1  0  0  0
 12 13  1  0  0  0
 12 21  1  0  0  0
 13 14  2  0  0  0
 13 42  1  0  0  0
 15 18  1  0  0  0
 15 25  1  0  0  0
 15 43  1  0  0  0
 17 18  1  0  0  0
 17 20  1  0  0  0
 18 44  1  0  0  0
 18 45  1  0  0  0
 20 22  1  0  0  0
 23 24  2  0  0  0
 25 46  1  0  0  0
 25 47  1  0  0  0
 25 48  1  0  0  0
 26 49  1  0  0  0
 27 50  1  0  0  0
 28 51  1  0  0  0
 29 30  2  0  0  0
 29 31  2  0  0  0
M  CHG  1  25   1
M  END
> <s_m_entry_id>
14

> <s_m_entry_name>
P27487.14

$$$$
2ogz_lig_U1N
                    3D
 Structure written by MMmdl.
 46 47  0  0  1  0            999 V2000
   38.5300   48.4920   39.8880 C   0  0  0  0  0  0
   39.6080   49.3990   40.1570 C   0  0  0  0  0  0
   40.4670   49.7820   39.0890 C   0  0  0  0  0  0
   40.2730   49.2730   37.7680 C   0  0  0  0  0  0
   39.2060   48.3780   37.5180 C   0  0  0  0  0  0
   38.3420   47.9890   38.5630 C   0  0  0  0  0  0
   41.1730   49.6630   36.6310 C   0  0  0  0  0  0
   41.3750   51.1680   36.5140 C   0  0  0  0  0  0
   40.1740   51.9440   35.9370 C   0  0  1  0  0  0
   40.7390   53.1660   35.2220 C   0  0  0  0  0  0
   39.3850   51.1160   34.9840 N   0  3  0  0  0  0
   37.9860   51.5470   34.7950 C   0  0  0  0  0  0
   37.0910   51.2610   36.0220 C   0  0  0  0  0  0
   37.0450   51.9910   36.9990 O   0  0  0  0  0  0
   36.1960   50.0240   36.0500 C   0  0  0  0  0  0
   36.5010   48.8120   35.3440 C   0  0  0  0  0  0
   35.6260   47.6990   35.4140 C   0  0  0  0  0  0
   34.4420   47.7940   36.1800 C   0  0  0  0  0  0
   33.6250   46.7580   36.2340 F   0  0  0  0  0  0
   34.1150   48.9730   36.8890 C   0  0  0  0  0  0
   34.9890   50.0830   36.8210 C   0  0  0  0  0  0
   37.5860   48.0130   40.9180 C   0  0  0  0  0  0
   37.6940   48.4390   42.2680 N   0  0  0  0  0  0
   36.6840   47.2380   40.6830 O   0  0  0  0  0  0
   39.7560   49.7800   41.1570 H   0  0  0  0  0  0
   41.2820   50.4680   39.2720 H   0  0  0  0  0  0
   39.0500   47.9880   36.5220 H   0  0  0  0  0  0
   37.5330   47.3040   38.3550 H   0  0  0  0  0  0
   42.1540   49.2100   36.7720 H   0  0  0  0  0  0
   40.7430   49.3150   35.6910 H   0  0  0  0  0  0
   41.5710   51.5860   37.5020 H   0  0  0  0  0  0
   42.2220   51.3710   35.8590 H   0  0  0  0  0  0
   39.5060   52.2360   36.7470 H   0  0  0  0  0  0
   39.9220   53.7480   34.7960 H   0  0  0  0  0  0
   41.2900   53.7810   35.9330 H   0  0  0  0  0  0
   41.4100   52.8440   34.4250 H   0  0  0  0  0  0
   39.8200   51.1420   34.0730 H   0  0  0  0  0  0
   37.9580   52.6210   34.6090 H   0  0  0  0  0  0
   37.5540   51.0210   33.9430 H   0  0  0  0  0  0
   37.4030   48.7430   34.7530 H   0  0  0  0  0  0
   35.8650   46.7890   34.8850 H   0  0  0  0  0  0
   33.2080   49.0180   37.4730 H   0  0  0  0  0  0
   34.7370   50.9830   37.3610 H   0  0  0  0  0  0
   37.0400   48.1010   42.9590 H   0  0  0  0  0  0
   38.4250   49.0810   42.5370 H   0  0  0  0  0  0
   39.3511   50.1621   35.3142 H   0  0  0  0  0  0
  1  2  2  0  0  0
  1  6  1  0  0  0
  1 22  1  0  0  0
  2  3  1  0  0  0
  2 25  1  0  0  0
  3  4  2  0  0  0
  3 26  1  0  0  0
  4  5  1  0  0  0
  4  7  1  0  0  0
  5  6  2  0  0  0
  5 27  1  0  0  0
  6 28  1  0  0  0
  7  8  1  0  0  0
  7 29  1  0  0  0
  7 30  1  0  0  0
  8  9  1  0  0  0
  8 31  1  0  0  0
  8 32  1  0  0  0
  9 10  1  0  0  0
  9 11  1  0  0  0
  9 33  1  0  0  0
 10 34  1  0  0  0
 10 35  1  0  0  0
 10 36  1  0  0  0
 11 12  1  0  0  0
 11 37  1  0  0  0
 11 46  1  0  0  0
 12 13  1  0  0  0
 12 38  1  0  0  0
 12 39  1  0  0  0
 13 14  2  0  0  0
 13 15  1  0  0  0
 15 16  2  0  0  0
 15 21  1  0  0  0
 16 17  1  0  0  0
 16 40  1  0  0  0
 17 18  2  0  0  0
 17 41  1  0  0  0
 18 19  1  0  0  0
 18 20  1  0  0  0
 20 21  2  0  0  0
 20 42  1  0  0  0
 21 43  1  0  0  0
 22 23  1  0  0  0
 22 24  2  0  0  0
 23 44  1  0  0  0
 23 45  1  0  0  0
M  CHG  1  11   1
M  END
> <s_m_entry_id>
15

> <s_m_entry_name>
P27487.15

$$$$
2ole_lig_KR2
                    3D
 Structure written by MMmdl.
 57 59  0  0  1  0            999 V2000
   41.8820   51.2570   41.1240 C   0  0  0  0  0  0
   40.7410   50.7500   41.7410 C   0  0  0  0  0  0
   39.4900   50.9360   41.1540 C   0  0  0  0  0  0
   39.3840   51.6390   39.9560 C   0  0  0  0  0  0
   40.5250   52.1490   39.3420 C   0  0  0  0  0  0
   41.7760   51.9480   39.9200 C   0  0  0  0  0  0
   43.0370   52.2560   39.1040 C   0  0  2  0  0  0
   42.8930   53.5560   38.5180 O   0  0  0  0  0  0
   43.0450   51.1970   38.0810 N   0  0  0  0  0  0
   44.3900   50.6020   38.0070 C   0  0  0  0  0  0
   44.9270   50.4120   36.5870 C   0  0  0  0  0  0
   45.3290   51.7270   35.9140 C   0  0  0  0  0  0
   44.1540   52.4420   35.2380 C   0  0  0  0  0  0
   43.0640   52.8810   36.2220 C   0  0  0  0  0  0
   42.5250   51.7090   36.9330 N   0  0  0  0  0  0
   41.6480   50.9070   36.3390 C   0  0  0  0  0  0
   41.4540   49.6130   36.7010 O   0  0  0  0  0  0
   40.8730   51.4200   35.1280 C   0  0  0  0  0  0
   39.5210   50.7160   35.0270 C   0  0  2  0  0  0
   39.0600   50.9090   33.6450 N   0  3  0  0  0  0
   38.3660   51.3130   35.8300 C   0  0  0  0  0  0
   37.2470   50.5530   36.1520 C   0  0  0  0  0  0
   37.1510   49.2320   35.7410 C   0  0  0  0  0  0
   35.9620   48.5140   35.8440 C   0  0  0  0  0  0
   35.9810   47.1950   35.5810 F   0  0  0  0  0  0
   34.8320   49.1510   36.3500 C   0  0  0  0  0  0
   33.5940   48.6600   36.1450 F   0  0  0  0  0  0
   34.9480   50.4430   36.8430 C   0  0  0  0  0  0
   36.1450   51.1460   36.7640 C   0  0  0  0  0  0
   36.1610   52.4160   37.2020 F   0  0  0  0  0  0
   42.8500   51.1140   41.5800 H   0  0  0  0  0  0
   40.8240   50.2120   42.6740 H   0  0  0  0  0  0
   38.6060   50.5350   41.6270 H   0  0  0  0  0  0
   38.4150   51.7880   39.5020 H   0  0  0  0  0  0
   40.4400   52.7010   38.4180 H   0  0  0  0  0  0
   43.9040   52.2620   39.7620 H   0  0  0  0  0  0
   43.6770   53.7630   38.0030 H   0  0  0  0  0  0
   45.1000   51.2420   38.5300 H   0  0  0  0  0  0
   44.3780   49.6160   38.4740 H   0  0  0  0  0  0
   45.8090   49.7730   36.6140 H   0  0  0  0  0  0
   44.1600   49.9470   35.9680 H   0  0  0  0  0  0
   45.7430   52.4060   36.6600 H   0  0  0  0  0  0
   46.0790   51.5290   35.1480 H   0  0  0  0  0  0
   44.5160   53.3340   34.7290 H   0  0  0  0  0  0
   43.6910   51.7730   34.5130 H   0  0  0  0  0  0
   43.4860   53.5770   36.9470 H   0  0  0  0  0  0
   42.2570   53.3710   35.6760 H   0  0  0  0  0  0
   40.7090   52.4920   35.2290 H   0  0  0  0  0  0
   41.4450   51.2240   34.2210 H   0  0  0  0  0  0
   39.6630   49.6400   35.1280 H   0  0  0  0  0  0
   38.1640   50.4600   33.5220 H   0  0  0  0  0  0
   38.9700   51.8970   33.4550 H   0  0  0  0  0  0
   39.7300   50.5030   33.0070 H   0  0  0  0  0  0
   38.7330   51.6470   36.8000 H   0  0  0  0  0  0
   37.9470   52.1610   35.2880 H   0  0  0  0  0  0
   38.0140   48.7320   35.3270 H   0  0  0  0  0  0
   34.0970   50.9250   37.3000 H   0  0  0  0  0  0
  1  2  2  0  0  0
  1  6  1  0  0  0
  1 31  1  0  0  0
  2  3  1  0  0  0
  2 32  1  0  0  0
  3  4  2  0  0  0
  3 33  1  0  0  0
  4  5  1  0  0  0
  4 34  1  0  0  0
  5  6  2  0  0  0
  5 35  1  0  0  0
  6  7  1  0  0  0
  7  8  1  0  0  0
  7  9  1  0  0  0
  7 36  1  0  0  0
  8 37  1  0  0  0
  9 10  1  0  0  0
  9 15  1  0  0  0
 10 11  1  0  0  0
 10 38  1  0  0  0
 10 39  1  0  0  0
 11 12  1  0  0  0
 11 40  1  0  0  0
 11 41  1  0  0  0
 12 13  1  0  0  0
 12 42  1  0  0  0
 12 43  1  0  0  0
 13 14  1  0  0  0
 13 44  1  0  0  0
 13 45  1  0  0  0
 14 15  1  0  0  0
 14 46  1  0  0  0
 14 47  1  0  0  0
 15 16  1  0  0  0
 16 17  2  0  0  0
 16 18  1  0  0  0
 18 19  1  0  0  0
 18 48  1  0  0  0
 18 49  1  0  0  0
 19 20  1  0  0  0
 19 21  1  0  0  0
 19 50  1  0  0  0
 20 51  1  0  0  0
 20 52  1  0  0  0
 20 53  1  0  0  0
 21 22  1  0  0  0
 21 54  1  0  0  0
 21 55  1  0  0  0
 22 23  2  0  0  0
 22 29  1  0  0  0
 23 24  1  0  0  0
 23 56  1  0  0  0
 24 25  1  0  0  0
 24 26  2  0  0  0
 26 27  1  0  0  0
 26 28  1  0  0  0
 28 29  2  0  0  0
 28 57  1  0  0  0
 29 30  1  0  0  0
M  CHG  1  20   1
M  END
> <s_m_entry_id>
16

> <s_m_entry_name>
P27487.16

$$$$
2oph_lig_277
                    3D
 Structure written by MMmdl.
 54 55  0  0  1  0            999 V2000
   42.9790   51.0660   34.5220 C   0  0  0  0  0  0
   41.6020   50.7730   35.1180 C   0  0  0  0  0  0
   40.9360   52.0640   35.6710 C   0  0  2  0  0  0
   41.8710   52.7250   36.7460 C   0  0  0  0  0  0
   43.2770   53.0290   36.1880 C   0  0  0  0  0  0
   43.8940   51.7410   35.5700 C   0  0  2  0  0  0
   39.5380   51.7740   36.2800 C   0  0  1  0  0  0
   38.4820   51.3710   35.1870 C   0  0  1  0  0  0
   37.0370   51.3870   35.7890 C   0  0  0  0  0  0
   36.2920   50.2610   35.7310 N   0  0  0  0  0  0
   45.2550   52.0370   35.0320 N   0  0  0  0  0  0
   46.4550   51.7460   35.6400 C   0  0  0  0  0  0
   45.3920   52.7110   33.7120 C   0  0  0  0  0  0
   46.4730   51.0580   37.0250 C   0  0  0  0  0  0
   47.5340   52.0170   35.1190 O   0  0  0  0  0  0
   36.6190   52.3810   36.3480 O   0  0  0  0  0  0
   38.5000   52.1240   34.3610 N   0  3  0  0  0  0
   39.6010   50.6600   37.3730 C   0  0  0  0  0  0
   36.8430   48.9720   35.3750 C   0  0  0  0  0  0
   35.7100   47.9950   35.4730 C   0  0  2  0  0  0
   34.4750   48.8630   35.3460 C   0  0  0  0  0  0
   34.8400   50.1770   36.0310 C   0  0  0  0  0  0
   35.7400   47.4340   36.7500 F   0  0  0  0  0  0
   43.4420   50.1340   34.1980 H   0  0  0  0  0  0
   42.8700   51.7340   33.6670 H   0  0  0  0  0  0
   40.9550   50.3530   34.3490 H   0  0  0  0  0  0
   41.7040   50.0590   35.9350 H   0  0  0  0  0  0
   40.7290   52.7480   34.8480 H   0  0  0  0  0  0
   41.4310   53.6630   37.0840 H   0  0  0  0  0  0
   41.9830   52.0500   37.5950 H   0  0  0  0  0  0
   43.2050   53.7970   35.4180 H   0  0  0  0  0  0
   43.9200   53.3840   36.9940 H   0  0  0  0  0  0
   44.1630   51.0160   36.3390 H   0  0  0  0  0  0
   39.1970   52.6440   36.8410 H   0  0  0  0  0  0
   46.4490   52.8470   33.4800 H   0  0  0  0  0  0
   44.9280   52.0960   32.9400 H   0  0  0  0  0  0
   44.9000   53.6830   33.7470 H   0  0  0  0  0  0
   47.5050   50.9090   37.3430 H   0  0  0  0  0  0
   45.9570   51.6860   37.7500 H   0  0  0  0  0  0
   45.9710   50.0930   36.9580 H   0  0  0  0  0  0
   37.8800   52.0200   33.5700 H   0  0  0  0  0  0
   38.6020   50.4870   37.7740 H   0  0  0  0  0  0
   39.9790   49.7370   36.9320 H   0  0  0  0  0  0
   40.2650   50.9760   38.1770 H   0  0  0  0  0  0
   37.2400   49.0130   34.3600 H   0  0  0  0  0  0
   37.6450   48.7150   36.0670 H   0  0  0  0  0  0
   35.7400   47.3160   34.6210 H   0  0  0  0  0  0
   34.2430   49.0120   34.2910 H   0  0  0  0  0  0
   33.6350   48.3740   35.8370 H   0  0  0  0  0  0
   34.6920   50.1590   37.1110 H   0  0  0  0  0  0
   34.3300   51.0430   35.6100 H   0  0  0  0  0  0
   38.6746   50.3513   34.8535 H   0  0  0  0  0  0
   38.2728   53.0359   34.7311 H   0  0  0  0  0  0
   39.4212   52.1490   33.9476 H   0  0  0  0  0  0
  1  2  1  0  0  0
  1  6  1  0  0  0
  1 24  1  0  0  0
  1 25  1  0  0  0
  2  3  1  0  0  0
  2 26  1  0  0  0
  2 27  1  0  0  0
  3  4  1  0  0  0
  3  7  1  0  0  0
  3 28  1  0  0  0
  4  5  1  0  0  0
  4 29  1  0  0  0
  4 30  1  0  0  0
  5  6  1  0  0  0
  5 31  1  0  0  0
  5 32  1  0  0  0
  6 11  1  0  0  0
  6 33  1  0  0  0
  7  8  1  0  0  0
  7 18  1  0  0  0
  7 34  1  0  0  0
  8  9  1  0  0  0
  8 17  1  0  0  0
  8 52  1  0  0  0
  9 10  1  0  0  0
  9 16  2  0  0  0
 10 19  1  0  0  0
 10 22  1  0  0  0
 11 12  1  0  0  0
 11 13  1  0  0  0
 12 14  1  0  0  0
 12 15  2  0  0  0
 13 35  1  0  0  0
 13 36  1  0  0  0
 13 37  1  0  0  0
 14 38  1  0  0  0
 14 39  1  0  0  0
 14 40  1  0  0  0
 17 41  1  0  0  0
 17 53  1  0  0  0
 17 54  1  0  0  0
 18 42  1  0  0  0
 18 43  1  0  0  0
 18 44  1  0  0  0
 19 20  1  0  0  0
 19 45  1  0  0  0
 19 46  1  0  0  0
 20 21  1  0  0  0
 20 23  1  0  0  0
 20 47  1  0  0  0
 21 22  1  0  0  0
 21 48  1  0  0  0
 21 49  1  0  0  0
 22 50  1  0  0  0
 22 51  1  0  0  0
M  CHG  1  17   1
M  END
> <s_m_entry_id>
17

> <s_m_entry_name>
P27487.17

$$$$
2p8s_lig_417
                    3D
 Structure written by MMmdl.
 50 53  0  0  1  0            999 V2000
   34.8340   50.4270   36.3520 C   0  0  0  0  0  0
   36.0780   51.0270   36.5410 C   0  0  0  0  0  0
   37.3130   50.3430   36.3570 C   0  0  0  0  0  0
   37.2590   48.9700   35.9530 C   0  0  0  0  0  0
   35.9970   48.3540   35.7620 C   0  0  0  0  0  0
   34.8010   49.0830   35.9600 C   0  0  0  0  0  0
   38.6200   51.0820   36.5810 C   0  0  1  0  0  0
   39.5550   50.3400   37.5720 C   0  0  0  0  0  0
   40.8550   51.1430   37.7840 C   0  0  0  0  0  0
   41.6210   51.4000   36.4440 C   0  0  1  0  0  0
   40.6800   52.1120   35.4320 C   0  0  0  0  0  0
   39.3660   51.3240   35.2220 C   0  0  2  0  0  0
   42.8780   52.2020   36.6200 N   0  3  2  0  0  0
   44.0240   51.3780   37.1120 C   0  0  0  0  0  0
   45.3790   52.1460   37.0750 C   0  0  0  0  0  0
   45.2220   53.5730   37.4710 N   0  0  0  0  0  0
   44.0420   54.1890   37.6660 C   0  0  0  0  0  0
   42.7240   53.4380   37.4880 C   0  0  0  0  0  0
   46.1290   54.5370   37.7310 C   0  0  0  0  0  0
   45.4600   55.6680   38.0510 N   0  0  0  0  0  0
   44.2280   55.4600   38.0150 N   0  0  0  0  0  0
   35.9540   47.0680   35.3880 F   0  0  0  0  0  0
   36.0770   52.3050   36.9160 F   0  0  0  0  0  0
   38.4930   52.0260   34.2760 N   0  3  0  0  0  0
   47.6510   54.4010   37.6730 C   0  0  0  0  0  0
   48.2090   55.5710   37.9880 F   0  0  0  0  0  0
   47.9780   54.0290   36.4400 F   0  0  0  0  0  0
   48.0020   53.4700   38.5520 F   0  0  0  0  0  0
   33.6170   48.5090   35.7830 F   0  0  0  0  0  0
   33.9310   50.9980   36.5080 H   0  0  0  0  0  0
   38.1730   48.4160   35.7990 H   0  0  0  0  0  0
   38.4110   52.0920   36.9320 H   0  0  0  0  0  0
   39.0490   50.2220   38.5310 H   0  0  0  0  0  0
   39.8050   49.3580   37.1700 H   0  0  0  0  0  0
   40.6170   52.1110   38.2270 H   0  0  0  0  0  0
   41.5190   50.5920   38.4510 H   0  0  0  0  0  0
   41.9970   50.4550   36.0540 H   0  0  0  0  0  0
   40.4290   53.1050   35.8050 H   0  0  0  0  0  0
   41.1840   52.2030   34.4690 H   0  0  0  0  0  0
   39.5570   50.3680   34.7360 H   0  0  0  0  0  0
   43.8400   51.0760   38.1430 H   0  0  0  0  0  0
   44.1290   50.4900   36.4880 H   0  0  0  0  0  0
   46.0820   51.6780   37.7640 H   0  0  0  0  0  0
   45.7870   52.1170   36.0650 H   0  0  0  0  0  0
   42.0070   54.1190   37.0280 H   0  0  0  0  0  0
   42.3660   53.1460   38.4760 H   0  0  0  0  0  0
   38.9860   52.1740   33.4080 H   0  0  0  0  0  0
   37.6680   51.4700   34.1040 H   0  0  0  0  0  0
   38.2220   52.9170   34.6650 H   0  0  0  0  0  0
   43.0870   52.6937   35.7629 H   0  0  0  0  0  0
  1  2  2  0  0  0
  1  6  1  0  0  0
  1 30  1  0  0  0
  2  3  1  0  0  0
  2 23  1  0  0  0
  3  4  2  0  0  0
  3  7  1  0  0  0
  4  5  1  0  0  0
  4 31  1  0  0  0
  5  6  2  0  0  0
  5 22  1  0  0  0
  6 29  1  0  0  0
  7  8  1  0  0  0
  7 12  1  0  0  0
  7 32  1  0  0  0
  8  9  1  0  0  0
  8 33  1  0  0  0
  8 34  1  0  0  0
  9 10  1  0  0  0
  9 35  1  0  0  0
  9 36  1  0  0  0
 10 11  1  0  0  0
 10 13  1  0  0  0
 10 37  1  0  0  0
 11 12  1  0  0  0
 11 38  1  0  0  0
 11 39  1  0  0  0
 12 24  1  0  0  0
 12 40  1  0  0  0
 13 14  1  0  0  0
 13 18  1  0  0  0
 13 50  1  0  0  0
 14 15  1  0  0  0
 14 41  1  0  0  0
 14 42  1  0  0  0
 15 16  1  0  0  0
 15 43  1  0  0  0
 15 44  1  0  0  0
 16 17  1  0  0  0
 16 19  1  0  0  0
 17 18  1  0  0  0
 17 21  2  0  0  0
 18 45  1  0  0  0
 18 46  1  0  0  0
 19 20  2  0  0  0
 19 25  1  0  0  0
 20 21  1  0  0  0
 24 47  1  0  0  0
 24 48  1  0  0  0
 24 49  1  0  0  0
 25 26  1  0  0  0
 25 27  1  0  0  0
 25 28  1  0  0  0
M  CHG  2  13   1  24   1
M  END
> <s_m_entry_id>
18

> <s_m_entry_name>
P27487.18

$$$$
2qjr_lig_PZF
                    3D
 Structure written by MMmdl.
 48 51  0  0  1  0            999 V2000
   46.6350   52.9890   34.7810 N   0  0  0  0  0  0
   47.8720   52.5910   35.1220 C   0  0  0  0  0  0
   47.0160   50.9500   36.5780 C   0  0  0  0  0  0
   38.6520   50.9370   36.1590 C   0  0  2  0  0  0
   37.2870   50.3730   36.2300 C   0  0  0  0  0  0
   43.4240   49.8170   38.6240 C   0  0  0  0  0  0
   40.6740   51.1830   34.8800 C   0  0  0  0  0  0
   50.2690   52.8530   35.0150 C   0  0  0  0  0  0
   37.0360   49.0600   35.8650 C   0  0  0  0  0  0
   33.5130   48.7830   36.4240 F   0  0  0  0  0  0
   34.7330   49.3140   36.3220 C   0  0  0  0  0  0
   34.9370   50.6160   36.7320 C   0  0  0  0  0  0
   36.2320   51.1360   36.6790 C   0  0  0  0  0  0
   36.4840   52.3850   37.0540 F   0  0  0  0  0  0
   35.7900   48.5240   35.8870 C   0  0  0  0  0  0
   35.6720   47.2340   35.5270 F   0  0  0  0  0  0
   39.1460   51.0540   34.7540 C   0  0  2  0  0  0
   38.6340   52.1950   34.0600 N   0  3  0  0  0  0
   40.8690   50.5600   36.1990 N   0  0  0  0  0  0
   39.6900   50.0790   36.8730 C   0  0  0  0  0  0
   42.1110   50.4760   36.8100 C   0  0  0  0  0  0
   42.2230   49.9150   38.0370 N   0  0  0  0  0  0
   43.2560   50.9890   36.1910 C   0  0  0  0  0  0
   44.4920   50.8330   36.7960 C   0  0  0  0  0  0
   44.5100   50.2700   38.0060 N   0  0  0  0  0  0
   45.7460   51.3790   36.2080 C   0  0  0  0  0  0
   48.1100   51.5680   36.0160 C   0  0  0  0  0  0
   48.9370   53.2250   34.5530 O   0  0  0  0  0  0
   45.6150   52.4250   35.3390 C   0  0  0  0  0  0
   47.1280   50.1470   37.2910 H   0  0  0  0  0  0
   38.6530   51.9420   36.5800 H   0  0  0  0  0  0
   43.5110   49.3690   39.6030 H   0  0  0  0  0  0
   41.1530   50.6490   34.0600 H   0  0  0  0  0  0
   40.9540   52.2360   34.8400 H   0  0  0  0  0  0
   51.0170   53.4350   34.4770 H   0  0  0  0  0  0
   50.3530   53.0530   36.0830 H   0  0  0  0  0  0
   50.4350   51.7920   34.8300 H   0  0  0  0  0  0
   37.8480   48.4220   35.5470 H   0  0  0  0  0  0
   34.1050   51.2080   37.0830 H   0  0  0  0  0  0
   38.8750   50.1570   34.1970 H   0  0  0  0  0  0
   39.0060   52.2130   33.1210 H   0  0  0  0  0  0
   37.6260   52.1410   34.0210 H   0  0  0  0  0  0
   38.9080   53.0360   34.5460 H   0  0  0  0  0  0
   39.6610   50.2880   37.9420 H   0  0  0  0  0  0
   39.4690   49.0240   36.7030 H   0  0  0  0  0  0
   43.1740   51.5040   35.2450 H   0  0  0  0  0  0
   49.1240   51.2800   36.2510 H   0  0  0  0  0  0
   44.6170   52.7780   35.1220 H   0  0  0  0  0  0
  1  2  2  0  0  0
  1 29  1  0  0  0
  2 27  1  0  0  0
  2 28  1  0  0  0
  3 26  1  0  0  0
  3 27  2  0  0  0
  3 30  1  0  0  0
  4  5  1  0  0  0
  4 17  1  0  0  0
  4 20  1  0  0  0
  4 31  1  0  0  0
  5  9  2  0  0  0
  5 13  1  0  0  0
  6 22  2  0  0  0
  6 25  1  0  0  0
  6 32  1  0  0  0
  7 17  1  0  0  0
  7 19  1  0  0  0
  7 33  1  0  0  0
  7 34  1  0  0  0
  8 28  1  0  0  0
  8 35  1  0  0  0
  8 36  1  0  0  0
  8 37  1  0  0  0
  9 15  1  0  0  0
  9 38  1  0  0  0
 10 11  1  0  0  0
 11 12  1  0  0  0
 11 15  2  0  0  0
 12 13  2  0  0  0
 12 39  1  0  0  0
 13 14  1  0  0  0
 15 16  1  0  0  0
 17 18  1  0  0  0
 17 40  1  0  0  0
 18 41  1  0  0  0
 18 42  1  0  0  0
 18 43  1  0  0  0
 19 20  1  0  0  0
 19 21  1  0  0  0
 20 44  1  0  0  0
 20 45  1  0  0  0
 21 22  1  0  0  0
 21 23  2  0  0  0
 23 24  1  0  0  0
 23 46  1  0  0  0
 24 25  2  0  0  0
 24 26  1  0  0  0
 26 29  2  0  0  0
 27 47  1  0  0  0
 29 48  1  0  0  0
M  CHG  1  18   1
M  END
> <s_m_entry_id>
19

> <s_m_entry_name>
P27487.19

$$$$
2qoe_lig_448
                    3D
 Structure written by MMmdl.
 47 49  0  0  1  0            999 V2000
   33.2730   48.7290   36.2720 F   0  0  0  0  0  0
   34.4880   49.2840   36.3710 C   0  0  0  0  0  0
   34.6450   50.6290   36.6730 C   0  0  0  0  0  0
   35.9210   51.1630   36.7710 C   0  0  0  0  0  0
   36.0440   52.4520   37.0780 F   0  0  0  0  0  0
   35.6770   48.4390   36.1420 C   0  0  0  0  0  0
   35.4460   47.1520   35.8360 F   0  0  0  0  0  0
   36.9640   48.9800   36.2410 C   0  0  0  0  0  0
   37.1300   50.3350   36.5500 C   0  0  0  0  0  0
   38.5100   50.9820   36.6640 C   0  0  0  0  0  0
   39.1720   51.0290   35.2670 C   0  0  1  0  0  0
   38.3170   51.7860   34.3550 N   0  3  0  0  0  0
   40.6060   51.5940   35.2770 C   0  0  0  0  0  0
   41.5610   50.7210   36.0830 C   0  0  0  0  0  0
   41.2160   49.5870   36.4120 O   0  0  0  0  0  0
   42.7520   51.2180   36.4780 N   0  0  0  0  0  0
   43.5150   52.3430   35.8750 C   0  0  0  0  0  0
   44.9860   51.9760   35.5580 C   0  0  0  0  0  0
   43.3390   50.5670   37.6770 C   0  0  2  0  0  0
   42.7870   51.1260   38.9980 C   0  0  0  0  0  0
   44.8170   50.6180   37.6670 C   0  0  0  0  0  0
   45.5060   51.2500   36.7140 N   0  0  0  0  0  0
   46.8840   51.1500   36.9390 N   0  0  0  0  0  0
   45.6890   50.0610   38.5620 N   0  0  0  0  0  0
   46.9000   50.3970   38.0760 C   0  0  0  0  0  0
   48.1740   49.9860   38.7870 C   0  0  0  0  0  0
   48.0050   50.0480   40.1070 F   0  0  0  0  0  0
   49.0860   50.8560   38.3740 F   0  0  0  0  0  0
   48.5530   48.7370   38.4990 F   0  0  0  0  0  0
   33.7760   51.2510   36.8310 H   0  0  0  0  0  0
   37.8270   48.3510   36.0800 H   0  0  0  0  0  0
   38.4060   51.9960   37.0510 H   0  0  0  0  0  0
   39.1320   50.3970   37.3410 H   0  0  0  0  0  0
   39.3740   50.0130   34.9260 H   0  0  0  0  0  0
   38.7450   51.8180   33.4400 H   0  0  0  0  0  0
   37.4150   51.3360   34.2880 H   0  0  0  0  0  0
   38.1990   52.7250   34.7040 H   0  0  0  0  0  0
   40.9810   51.6520   34.2550 H   0  0  0  0  0  0
   40.6020   52.5900   35.7190 H   0  0  0  0  0  0
   43.0400   52.6440   34.9410 H   0  0  0  0  0  0
   43.5260   53.1860   36.5660 H   0  0  0  0  0  0
   45.0210   51.3530   34.6650 H   0  0  0  0  0  0
   45.5590   52.8880   35.3870 H   0  0  0  0  0  0
   43.2120   49.4870   37.6050 H   0  0  0  0  0  0
   43.2560   50.6100   39.8350 H   0  0  0  0  0  0
   43.0060   52.1920   39.0610 H   0  0  0  0  0  0
   41.7090   50.9750   39.0350 H   0  0  0  0  0  0
  1  2  1  0  0  0
  2  3  2  0  0  0
  2  6  1  0  0  0
  3  4  1  0  0  0
  3 30  1  0  0  0
  4  5  1  0  0  0
  4  9  2  0  0  0
  6  7  1  0  0  0
  6  8  2  0  0  0
  8  9  1  0  0  0
  8 31  1  0  0  0
  9 10  1  0  0  0
 10 11  1  0  0  0
 10 32  1  0  0  0
 10 33  1  0  0  0
 11 12  1  0  0  0
 11 13  1  0  0  0
 11 34  1  0  0  0
 12 35  1  0  0  0
 12 36  1  0  0  0
 12 37  1  0  0  0
 13 14  1  0  0  0
 13 38  1  0  0  0
 13 39  1  0  0  0
 14 15  2  0  0  0
 14 16  1  0  0  0
 16 17  1  0  0  0
 16 19  1  0  0  0
 17 18  1  0  0  0
 17 40  1  0  0  0
 17 41  1  0  0  0
 18 22  1  0  0  0
 18 42  1  0  0  0
 18 43  1  0  0  0
 19 20  1  0  0  0
 19 21  1  0  0  0
 19 44  1  0  0  0
 20 45  1  0  0  0
 20 46  1  0  0  0
 20 47  1  0  0  0
 21 22  1  0  0  0
 21 24  2  0  0  0
 22 23  1  0  0  0
 23 25  2  0  0  0
 24 25  1  0  0  0
 25 26  1  0  0  0
 26 27  1  0  0  0
 26 28  1  0  0  0
 26 29  1  0  0  0
M  CHG  1  12   1
M  END
> <s_m_entry_id>
20

> <s_m_entry_name>
P27487.20

$$$$
2qt9_lig_524
                    3D
 Structure written by MMmdl.
 63 66  0  0  1  0            999 V2000
   48.1510   52.7460   33.6170 C   0  0  0  0  0  0
   45.6890   52.5920   33.2150 C   0  0  0  0  0  0
   45.4560   52.0670   34.4810 C   0  0  0  0  0  0
   47.9020   52.1810   34.9640 C   0  0  0  0  0  0
   47.0730   52.9330   32.7860 C   0  0  0  0  0  0
   46.6430   51.8720   35.3590 N   0  0  0  0  0  0
   46.6540   51.4170   36.5120 N   0  0  0  0  0  0
   47.9370   51.4260   36.8960 C   0  0  0  0  0  0
   48.7670   51.9050   35.9450 N   0  0  0  0  0  0
   39.7620   51.9040   36.1460 C   0  0  1  0  0  0
   38.6420   51.4170   35.1860 C   0  0  1  0  0  0
   37.2260   51.3530   35.7900 C   0  0  0  0  0  0
   36.4340   50.2650   35.7390 N   0  0  0  0  0  0
   39.9660   50.7950   37.2790 C   0  0  0  0  0  0
   38.4730   52.3280   34.0690 N   0  3  0  0  0  0
   36.8040   52.3830   36.3230 O   0  0  0  0  0  0
   40.0310   49.6130   36.8460 O   0  0  0  0  0  0
   40.0940   51.0360   38.6650 N   0  0  0  0  0  0
   40.0550   52.3080   39.3930 C   0  0  0  0  0  0
   40.3060   49.8310   39.5020 C   0  0  0  0  0  0
   36.7670   48.9710   35.1770 C   0  0  0  0  0  0
   35.4900   48.1520   35.4240 C   0  0  2  0  0  0
   34.3940   49.0210   36.0820 C   0  0  0  0  0  0
   35.1290   50.3990   36.2750 C   0  0  0  0  0  0
   35.7780   47.3480   36.5210 F   0  0  0  0  0  0
   44.1270   51.6870   35.0530 C   0  0  1  0  0  0
   43.5920   52.9010   35.8260 C   0  0  0  0  0  0
   42.2210   52.6350   36.4790 C   0  0  0  0  0  0
   41.1460   52.1300   35.4470 C   0  0  1  0  0  0
   41.7400   50.9010   34.6580 C   0  0  0  0  0  0
   43.0720   51.2680   33.9920 C   0  0  0  0  0  0
   49.1570   52.9970   33.3150 H   0  0  0  0  0  0
   44.8640   52.7540   32.5370 H   0  0  0  0  0  0
   47.2180   53.3370   31.7960 H   0  0  0  0  0  0
   48.2090   51.0730   37.8790 H   0  0  0  0  0  0
   39.4640   52.8480   36.6030 H   0  0  0  0  0  0
   38.8430   50.3890   34.8850 H   0  0  0  0  0  0
   37.7390   51.9870   33.4640 H   0  0  0  0  0  0
   38.2230   53.2440   34.4150 H   0  0  0  0  0  0
   39.3370   52.3880   33.5500 H   0  0  0  0  0  0
   40.1880   52.1230   40.4580 H   0  0  0  0  0  0
   40.8540   52.9570   39.0350 H   0  0  0  0  0  0
   39.0930   52.7920   39.2270 H   0  0  0  0  0  0
   40.3910   50.1250   40.5480 H   0  0  0  0  0  0
   39.4610   49.1540   39.3840 H   0  0  0  0  0  0
   41.2210   49.3280   39.1900 H   0  0  0  0  0  0
   36.9950   49.0830   34.1170 H   0  0  0  0  0  0
   37.6340   48.5610   35.6940 H   0  0  0  0  0  0
   34.9670   48.0010   34.4790 H   0  0  0  0  0  0
   33.5350   49.0880   35.4150 H   0  0  0  0  0  0
   34.0870   48.5680   37.0240 H   0  0  0  0  0  0
   35.1950   50.6510   37.3340 H   0  0  0  0  0  0
   34.5980   51.1910   35.7470 H   0  0  0  0  0  0
   44.2460   50.8260   35.7110 H   0  0  0  0  0  0
   44.2930   53.1650   36.6180 H   0  0  0  0  0  0
   43.4790   53.7440   35.1450 H   0  0  0  0  0  0
   42.3270   51.8730   37.2510 H   0  0  0  0  0  0
   41.8470   53.5560   36.9280 H   0  0  0  0  0  0
   41.0210   52.8100   34.6040 H   0  0  0  0  0  0
   41.9100   50.0740   35.3470 H   0  0  0  0  0  0
   41.0370   50.5910   33.8860 H   0  0  0  0  0  0
   42.9010   52.0940   33.3020 H   0  0  0  0  0  0
   43.4360   50.4020   33.4390 H   0  0  0  0  0  0
  1  4  1  0  0  0
  1  5  2  0  0  0
  1 32  1  0  0  0
  2  3  2  0  0  0
  2  5  1  0  0  0
  2 33  1  0  0  0
  3  6  1  0  0  0
  3 26  1  0  0  0
  4  6  1  0  0  0
  4  9  2  0  0  0
  5 34  1  0  0  0
  6  7  1  0  0  0
  7  8  2  0  0  0
  8  9  1  0  0  0
  8 35  1  0  0  0
 10 11  1  0  0  0
 10 14  1  0  0  0
 10 29  1  0  0  0
 10 36  1  0  0  0
 11 12  1  0  0  0
 11 15  1  0  0  0
 11 37  1  0  0  0
 12 13  1  0  0  0
 12 16  2  0  0  0
 13 21  1  0  0  0
 13 24  1  0  0  0
 14 17  2  0  0  0
 14 18  1  0  0  0
 15 38  1  0  0  0
 15 39  1  0  0  0
 15 40  1  0  0  0
 18 19  1  0  0  0
 18 20  1  0  0  0
 19 41  1  0  0  0
 19 42  1  0  0  0
 19 43  1  0  0  0
 20 44  1  0  0  0
 20 45  1  0  0  0
 20 46  1  0  0  0
 21 22  1  0  0  0
 21 47  1  0  0  0
 21 48  1  0  0  0
 22 23  1  0  0  0
 22 25  1  0  0  0
 22 49  1  0  0  0
 23 24  1  0  0  0
 23 50  1  0  0  0
 23 51  1  0  0  0
 24 52  1  0  0  0
 24 53  1  0  0  0
 26 27  1  0  0  0
 26 31  1  0  0  0
 26 54  1  0  0  0
 27 28  1  0  0  0
 27 55  1  0  0  0
 27 56  1  0  0  0
 28 29  1  0  0  0
 28 57  1  0  0  0
 28 58  1  0  0  0
 29 30  1  0  0  0
 29 59  1  0  0  0
 30 31  1  0  0  0
 30 60  1  0  0  0
 30 61  1  0  0  0
 31 62  1  0  0  0
 31 63  1  0  0  0
M  CHG  1  15   1
M  END
> <s_m_entry_id>
21

> <s_m_entry_name>
P27487.21

$$$$
2qtb_lig_474
                    3D
 Structure written by MMmdl.
 63 66  0  0  1  0            999 V2000
   39.7780   51.6880   36.3320 C   0  0  1  0  0  0
   38.6720   51.3010   35.3010 C   0  0  1  0  0  0
   37.2540   51.4390   35.9020 C   0  0  0  0  0  0
   36.4540   50.3330   35.8690 N   0  0  0  0  0  0
   39.9740   50.7140   37.3350 C   0  0  0  0  0  0
   38.6650   52.1410   34.1000 N   0  3  0  0  0  0
   36.8840   52.4990   36.3800 O   0  0  0  0  0  0
   39.9830   49.5530   36.8880 O   0  0  0  0  0  0
   40.1470   50.9510   38.7090 N   0  0  0  0  0  0
   40.1430   52.2600   39.3930 C   0  0  0  0  0  0
   40.3490   49.7460   39.5440 C   0  0  0  0  0  0
   36.7890   48.9930   35.3440 C   0  0  0  0  0  0
   35.5400   48.1880   35.6160 C   0  0  0  0  0  0
   34.4570   49.2200   35.6210 C   0  0  0  0  0  0
   35.0920   50.3760   36.3900 C   0  0  0  0  0  0
   35.6240   47.6590   36.8530 F   0  0  0  0  0  0
   44.2390   51.7820   35.2830 C   0  0  1  0  0  0
   43.5330   52.9540   36.0120 C   0  0  0  0  0  0
   42.2240   52.5810   36.6780 C   0  0  0  0  0  0
   41.1870   52.0440   35.6490 C   0  0  1  0  0  0
   41.8640   50.8340   34.8610 C   0  0  0  0  0  0
   43.2380   51.2080   34.2250 C   0  0  0  0  0  0
   48.2610   52.5500   33.7730 C   0  0  0  0  0  0
   47.1730   52.9380   32.8300 C   0  0  0  0  0  0
   45.8770   52.7590   33.2190 C   0  0  0  0  0  0
   45.5660   52.1010   34.5420 C   0  0  0  0  0  0
   46.5600   51.7280   35.4030 C   0  0  0  0  0  0
   47.9730   51.9210   34.9460 N   0  0  0  0  0  0
   49.0250   51.6750   35.5800 N   0  0  0  0  0  0
   50.0230   52.0790   34.7710 C   0  0  0  0  0  0
   49.5850   52.6240   33.6100 N   0  0  0  0  0  0
   35.3580   47.2230   34.7150 F   0  0  0  0  0  0
   39.5550   52.6670   36.7550 H   0  0  0  0  0  0
   38.8020   50.2600   35.0010 H   0  0  0  0  0  0
   37.9280   51.8370   33.4790 H   0  0  0  0  0  0
   38.5080   53.1040   34.3630 H   0  0  0  0  0  0
   39.5550   52.0640   33.6280 H   0  0  0  0  0  0
   40.3010   52.1120   40.4610 H   0  0  0  0  0  0
   40.9420   52.8830   38.9900 H   0  0  0  0  0  0
   39.1830   52.7510   39.2330 H   0  0  0  0  0  0
   40.4710   50.0420   40.5870 H   0  0  0  0  0  0
   39.4840   49.0900   39.4520 H   0  0  0  0  0  0
   41.2420   49.2180   39.2100 H   0  0  0  0  0  0
   37.0140   49.0660   34.2810 H   0  0  0  0  0  0
   37.6590   48.6030   35.8730 H   0  0  0  0  0  0
   34.2040   49.4870   34.5950 H   0  0  0  0  0  0
   33.5740   48.8190   36.1180 H   0  0  0  0  0  0
   35.1100   50.2240   37.4690 H   0  0  0  0  0  0
   34.6480   51.3460   36.1670 H   0  0  0  0  0  0
   44.5280   51.0220   36.0100 H   0  0  0  0  0  0
   44.1870   53.3430   36.7930 H   0  0  0  0  0  0
   43.3110   53.7460   35.2960 H   0  0  0  0  0  0
   42.4020   51.8040   37.4220 H   0  0  0  0  0  0
   41.8000   53.4590   37.1650 H   0  0  0  0  0  0
   41.0310   52.7670   34.8470 H   0  0  0  0  0  0
   42.0340   50.0030   35.5470 H   0  0  0  0  0  0
   41.2050   50.5100   34.0550 H   0  0  0  0  0  0
   43.0610   51.9530   33.4500 H   0  0  0  0  0  0
   43.6600   50.3100   33.7760 H   0  0  0  0  0  0
   47.4180   53.3500   31.8630 H   0  0  0  0  0  0
   45.0710   53.0880   32.5800 H   0  0  0  0  0  0
   46.3110   51.3120   36.3680 H   0  0  0  0  0  0
   51.0510   51.9520   35.0780 H   0  0  0  0  0  0
  1  2  1  0  0  0
  1  5  1  0  0  0
  1 20  1  0  0  0
  1 33  1  0  0  0
  2  3  1  0  0  0
  2  6  1  0  0  0
  2 34  1  0  0  0
  3  4  1  0  0  0
  3  7  2  0  0  0
  4 12  1  0  0  0
  4 15  1  0  0  0
  5  8  2  0  0  0
  5  9  1  0  0  0
  6 35  1  0  0  0
  6 36  1  0  0  0
  6 37  1  0  0  0
  9 10  1  0  0  0
  9 11  1  0  0  0
 10 38  1  0  0  0
 10 39  1  0  0  0
 10 40  1  0  0  0
 11 41  1  0  0  0
 11 42  1  0  0  0
 11 43  1  0  0  0
 12 13  1  0  0  0
 12 44  1  0  0  0
 12 45  1  0  0  0
 13 14  1  0  0  0
 13 16  1  0  0  0
 13 32  1  0  0  0
 14 15  1  0  0  0
 14 46  1  0  0  0
 14 47  1  0  0  0
 15 48  1  0  0  0
 15 49  1  0  0  0
 17 18  1  0  0  0
 17 22  1  0  0  0
 17 26  1  0  0  0
 17 50  1  0  0  0
 18 19  1  0  0  0
 18 51  1  0  0  0
 18 52  1  0  0  0
 19 20  1  0  0  0
 19 53  1  0  0  0
 19 54  1  0  0  0
 20 21  1  0  0  0
 20 55  1  0  0  0
 21 22  1  0  0  0
 21 56  1  0  0  0
 21 57  1  0  0  0
 22 58  1  0  0  0
 22 59  1  0  0  0
 23 24  1  0  0  0
 23 28  1  0  0  0
 23 31  2  0  0  0
 24 25  2  0  0  0
 24 60  1  0  0  0
 25 26  1  0  0  0
 25 61  1  0  0  0
 26 27  2  0  0  0
 27 28  1  0  0  0
 27 62  1  0  0  0
 28 29  1  0  0  0
 29 30  2  0  0  0
 30 31  1  0  0  0
 30 63  1  0  0  0
M  CHG  1   6   1
M  END
> <s_m_entry_id>
22

> <s_m_entry_name>
P27487.22

$$$$
3bjm_lig_BJM
                    3D
 Structure written by MMmdl.
 54 58  0  0  1  0            999 V2000
   39.8750   51.0110   36.3630 C   0  0  1  0  0  0
   38.6260   51.0690   35.4010 C   0  0  1  0  0  0
   39.9170   49.6480   37.0590 C   0  0  0  0  0  0
   41.1730   49.5000   37.9320 C   0  0  1  0  0  0
   42.4340   51.0550   36.4270 C   0  0  2  0  0  0
   41.1180   51.9860   38.4220 C   0  0  1  0  0  0
   42.4290   49.6690   37.0350 C   0  0  0  0  0  0
   41.1100   50.5760   39.0710 C   0  0  0  0  0  0
   42.4520   52.0870   37.5890 C   0  0  0  0  0  0
   35.6510   47.6980   35.5840 C   0  0  1  0  0  0
   36.9800   47.7700   36.2790 C   0  0  0  0  0  0
   34.4590   48.5800   35.8720 C   0  0  0  0  0  0
   35.0810   49.6460   38.0280 C   0  0  0  0  0  0
   35.8280   50.5340   38.7010 N   0  3  0  0  0  0
   41.1760   51.1590   35.5090 C   0  0  0  0  0  0
   39.8880   52.1010   37.4580 C   0  0  0  0  0  0
   37.2160   51.0080   36.0240 C   0  0  0  0  0  0
   38.6090   52.2630   34.6130 N   0  3  0  0  0  0
   36.5300   49.8690   36.0280 N   0  0  0  0  0  0
   36.7310   52.0270   36.4960 O   0  0  0  0  0  0
   41.2340   48.1810   38.4190 O   0  0  0  0  0  0
   36.6610   48.6590   35.1390 C   0  0  2  0  0  0
   35.0990   49.8100   36.4630 C   0  0  1  0  0  0
   38.6730   50.2400   34.6930 H   0  0  0  0  0  0
   39.0390   49.5380   37.6970 H   0  0  0  0  0  0
   39.9230   48.8570   36.3100 H   0  0  0  0  0  0
   43.2890   51.1570   35.7600 H   0  0  0  0  0  0
   41.1250   52.7460   39.2030 H   0  0  0  0  0  0
   43.3270   49.5350   37.6380 H   0  0  0  0  0  0
   42.4110   48.9240   36.2400 H   0  0  0  0  0  0
   40.1960   50.4390   39.6500 H   0  0  0  0  0  0
   41.9740   50.4640   39.7260 H   0  0  0  0  0  0
   43.3000   51.8830   38.2440 H   0  0  0  0  0  0
   42.5440   53.0930   37.1800 H   0  0  0  0  0  0
   34.9650   47.0890   36.1720 H   0  0  0  0  0  0
   36.8280   48.0160   37.3290 H   0  0  0  0  0  0
   37.4840   46.8060   36.2020 H   0  0  0  0  0  0
   33.9250   48.7850   34.9450 H   0  0  0  0  0  0
   33.7920   48.0740   36.5700 H   0  0  0  0  0  0
   36.7040   50.8520   38.3130 H   0  0  0  0  0  0
   41.2120   50.3680   34.7610 H   0  0  0  0  0  0
   41.1760   52.1290   35.0120 H   0  0  0  0  0  0
   39.9240   53.0850   36.9910 H   0  0  0  0  0  0
   38.9840   52.0190   38.0620 H   0  0  0  0  0  0
   37.7970   52.2600   34.0140 H   0  0  0  0  0  0
   38.5740   53.0680   35.2220 H   0  0  0  0  0  0
   42.0150   48.0760   38.9660 H   0  0  0  0  0  0
   37.3580   48.1660   34.4600 H   0  0  0  0  0  0
   34.4980   50.6850   36.2180 H   0  0  0  0  0  0
   35.4362   48.6374   38.2394 H   0  0  0  0  0  0
   34.0401   49.7366   38.3385 H   0  0  0  0  0  0
   35.2993   51.3834   38.8391 H   0  0  0  0  0  0
   39.4439   52.3048   34.0462 H   0  0  0  0  0  0
   36.0842   50.1477   39.5984 H   0  0  0  0  0  0
  1  2  1  0  0  0
  1  3  1  0  0  0
  1 15  1  0  0  0
  1 16  1  0  0  0
  2 17  1  0  0  0
  2 18  1  0  0  0
  2 24  1  0  0  0
  3  4  1  0  0  0
  3 25  1  0  0  0
  3 26  1  0  0  0
  4  7  1  0  0  0
  4  8  1  0  0  0
  4 21  1  0  0  0
  5  7  1  0  0  0
  5  9  1  0  0  0
  5 15  1  0  0  0
  5 27  1  0  0  0
  6  8  1  0  0  0
  6  9  1  0  0  0
  6 16  1  0  0  0
  6 28  1  0  0  0
  7 29  1  0  0  0
  7 30  1  0  0  0
  8 31  1  0  0  0
  8 32  1  0  0  0
  9 33  1  0  0  0
  9 34  1  0  0  0
 10 11  1  0  0  0
 10 12  1  0  0  0
 10 22  1  0  0  0
 10 35  1  0  0  0
 11 22  1  0  0  0
 11 36  1  0  0  0
 11 37  1  0  0  0
 12 23  1  0  0  0
 12 38  1  0  0  0
 12 39  1  0  0  0
 13 14  1  0  0  0
 13 23  1  0  0  0
 13 50  1  0  0  0
 13 51  1  0  0  0
 14 40  1  0  0  0
 14 52  1  0  0  0
 14 54  1  0  0  0
 15 41  1  0  0  0
 15 42  1  0  0  0
 16 43  1  0  0  0
 16 44  1  0  0  0
 17 19  1  0  0  0
 17 20  2  0  0  0
 18 45  1  0  0  0
 18 46  1  0  0  0
 18 53  1  0  0  0
 19 22  1  0  0  0
 19 23  1  0  0  0
 21 47  1  0  0  0
 22 48  1  0  0  0
 23 49  1  0  0  0
M  CHG  2  14   1  18   1
M  END
> <s_m_entry_id>
23

> <s_m_entry_name>
P27487.23

$$$$
3ccb_lig_B2Y
                    3D
 Structure written by MMmdl.
 28 29  0  0  1  0            999 V2000
   38.4230   51.8490   34.6680 N   0  3  0  0  0  0
   40.4600   51.9030   37.3840 C   0  0  0  0  0  0
   40.5020   52.1810   38.7440 C   0  0  0  0  0  0
   39.4340   51.8060   39.5500 C   0  0  0  0  0  0
   38.3270   51.1530   39.0040 C   0  0  0  0  0  0
   38.2830   50.8750   37.6270 C   0  0  0  0  0  0
   35.8360   50.7540   37.0510 C   0  0  0  0  0  0
   36.1660   48.1270   36.1000 C   0  0  0  0  0  0
   39.3890   50.9780   35.3340 C   0  0  0  0  0  0
   39.3690   51.2520   36.8180 C   0  0  0  0  0  0
   37.0980   50.1560   37.0770 C   0  0  0  0  0  0
   34.7660   50.0210   36.5330 C   0  0  0  0  0  0
   34.9220   48.7240   36.0540 C   0  0  0  0  0  0
   37.2370   48.8350   36.6120 C   0  0  0  0  0  0
   38.4340   51.6670   33.6740 H   0  0  0  0  0  0
   37.4980   51.6690   35.0320 H   0  0  0  0  0  0
   38.6680   52.8140   34.8360 H   0  0  0  0  0  0
   41.2830   52.1940   36.7480 H   0  0  0  0  0  0
   41.3590   52.6850   39.1670 H   0  0  0  0  0  0
   39.4550   52.0200   40.6090 H   0  0  0  0  0  0
   37.5040   50.8610   39.6400 H   0  0  0  0  0  0
   35.7070   51.7580   37.4260 H   0  0  0  0  0  0
   36.2930   47.1170   35.7390 H   0  0  0  0  0  0
   39.1250   49.9360   35.1520 H   0  0  0  0  0  0
   40.3870   51.1730   34.9400 H   0  0  0  0  0  0
   33.7800   50.4590   36.4950 H   0  0  0  0  0  0
   34.0790   48.1850   35.6480 H   0  0  0  0  0  0
   38.2130   48.3760   36.6620 H   0  0  0  0  0  0
  1  9  1  0  0  0
  1 15  1  0  0  0
  1 16  1  0  0  0
  1 17  1  0  0  0
  2  3  2  0  0  0
  2 10  1  0  0  0
  2 18  1  0  0  0
  3  4  1  0  0  0
  3 19  1  0  0  0
  4  5  2  0  0  0
  4 20  1  0  0  0
  5  6  1  0  0  0
  5 21  1  0  0  0
  6 10  2  0  0  0
  6 11  1  0  0  0
  7 11  2  0  0  0
  7 12  1  0  0  0
  7 22  1  0  0  0
  8 13  1  0  0  0
  8 14  2  0  0  0
  8 23  1  0  0  0
  9 10  1  0  0  0
  9 24  1  0  0  0
  9 25  1  0  0  0
 11 14  1  0  0  0
 12 13  2  0  0  0
 12 26  1  0  0  0
 13 27  1  0  0  0
 14 28  1  0  0  0
M  CHG  1   1   1
M  END
> <s_m_entry_id>
25

> <s_m_entry_name>
P27487.25

$$$$
3d4l_lig_605
                    3D
 Structure written by MMmdl.
 45 47  0  0  1  0            999 V2000
   34.5290   50.6440   36.2730 C   0  0  0  0  0  0
   35.8890   51.0210   36.5050 C   0  0  0  0  0  0
   36.9850   50.0950   36.3740 C   0  0  0  0  0  0
   36.7160   48.7360   35.9030 C   0  0  0  0  0  0
   35.3450   48.3500   35.6540 C   0  0  0  0  0  0
   34.2400   49.2970   35.8090 C   0  0  0  0  0  0
   38.4110   50.4910   36.6230 C   0  0  0  0  0  0
   39.0860   50.6780   35.1980 C   0  0  2  0  0  0
   40.5140   51.0440   35.3430 C   0  0  0  0  0  0
   38.3660   51.7690   34.4270 N   0  3  0  0  0  0
   41.3460   50.0200   35.9890 C   0  0  0  0  0  0
   42.7230   50.2080   36.1690 C   0  0  0  0  0  0
   43.3890   51.4280   35.7260 C   0  0  0  0  0  0
   42.5660   52.5000   35.0620 C   0  0  0  0  0  0
   41.1480   52.3080   34.8710 C   0  0  0  0  0  0
   44.8660   51.5200   35.9430 C   0  0  0  0  0  0
   45.5940   51.0480   37.1540 C   0  0  0  0  0  0
   47.0410   51.1810   37.2440 C   0  0  0  0  0  0
   47.8030   51.7740   36.1520 C   0  0  0  0  0  0
   47.0940   52.2490   34.9300 C   0  0  0  0  0  0
   45.6500   52.1060   34.8670 C   0  0  0  0  0  0
   35.0740   47.1530   35.2390 F   0  0  0  0  0  0
   36.1150   52.2280   36.9100 F   0  0  0  0  0  0
   47.7730   52.8640   33.7720 C   0  0  0  0  0  0
   47.1900   53.9200   33.1910 N   0  0  0  0  0  0
   48.8340   52.4420   33.3410 O   0  0  0  0  0  0
   33.7350   51.3560   36.4430 H   0  0  0  0  0  0
   37.5330   48.0460   35.7490 H   0  0  0  0  0  0
   33.2230   49.0100   35.5850 H   0  0  0  0  0  0
   38.4370   51.4220   37.1900 H   0  0  0  0  0  0
   38.9130   49.7070   37.1900 H   0  0  0  0  0  0
   39.0060   49.7490   34.6330 H   0  0  0  0  0  0
   38.7990   51.8840   33.5220 H   0  0  0  0  0  0
   37.3970   51.5130   34.3060 H   0  0  0  0  0  0
   38.4230   52.6370   34.9390 H   0  0  0  0  0  0
   40.8980   49.1000   36.3360 H   0  0  0  0  0  0
   43.3150   49.4400   36.6450 H   0  0  0  0  0  0
   43.0370   53.4130   34.7280 H   0  0  0  0  0  0
   40.5470   53.0670   34.3920 H   0  0  0  0  0  0
   45.0480   50.6030   37.9730 H   0  0  0  0  0  0
   47.5610   50.8390   38.1270 H   0  0  0  0  0  0
   48.8760   51.8670   36.2310 H   0  0  0  0  0  0
   45.1600   52.4580   33.9710 H   0  0  0  0  0  0
   47.6270   54.3650   32.3970 H   0  0  0  0  0  0
   46.3130   54.2720   33.5470 H   0  0  0  0  0  0
  1  2  2  0  0  0
  1  6  1  0  0  0
  1 27  1  0  0  0
  2  3  1  0  0  0
  2 23  1  0  0  0
  3  4  2  0  0  0
  3  7  1  0  0  0
  4  5  1  0  0  0
  4 28  1  0  0  0
  5  6  2  0  0  0
  5 22  1  0  0  0
  6 29  1  0  0  0
  7  8  1  0  0  0
  7 30  1  0  0  0
  7 31  1  0  0  0
  8  9  1  0  0  0
  8 10  1  0  0  0
  8 32  1  0  0  0
  9 11  2  0  0  0
  9 15  1  0  0  0
 10 33  1  0  0  0
 10 34  1  0  0  0
 10 35  1  0  0  0
 11 12  1  0  0  0
 11 36  1  0  0  0
 12 13  2  0  0  0
 12 37  1  0  0  0
 13 14  1  0  0  0
 13 16  1  0  0  0
 14 15  2  0  0  0
 14 38  1  0  0  0
 15 39  1  0  0  0
 16 17  2  0  0  0
 16 21  1  0  0  0
 17 18  1  0  0  0
 17 40  1  0  0  0
 18 19  2  0  0  0
 18 41  1  0  0  0
 19 20  1  0  0  0
 19 42  1  0  0  0
 20 21  2  0  0  0
 20 24  1  0  0  0
 21 43  1  0  0  0
 24 25  1  0  0  0
 24 26  2  0  0  0
 25 44  1  0  0  0
 25 45  1  0  0  0
M  CHG  1  10   1
M  END
> <s_m_entry_id>
26

> <s_m_entry_name>
P27487.26

$$$$
3eio_lig_AJH
                    3D
 Structure written by MMmdl.
 57 59  0  0  1  0            999 V2000
   46.7800   49.7720   38.9320 C   0  0  0  0  0  0
   47.8730   48.9350   38.7210 C   0  0  0  0  0  0
   49.0980   49.4560   38.3170 C   0  0  0  0  0  0
   50.3000   48.5290   38.0900 C   0  0  0  0  0  0
   51.0180   48.7150   37.0810 O   0  0  0  0  0  0
   50.4740   47.5980   38.9050 O   0  5  0  0  0  0
   49.2190   50.8280   38.1360 C   0  0  0  0  0  0
   48.1290   51.6650   38.3630 C   0  0  0  0  0  0
   46.8840   51.1590   38.7630 C   0  0  0  0  0  0
   45.8360   51.9860   38.7680 C   0  0  0  0  0  0
   46.1040   53.1870   38.7870 O   0  0  0  0  0  0
   44.5660   51.5780   38.8270 N   0  0  0  0  0  0
   44.2030   50.1810   38.5570 C   0  0  0  0  0  0
   44.0670   50.0220   37.0390 C   0  0  0  0  0  0
   43.4700   52.5570   38.9100 C   0  0  0  0  0  0
   43.1590   53.2450   37.5760 C   0  0  0  0  0  0
   43.4660   52.4060   36.3300 C   0  0  0  0  0  0
   43.1000   50.9890   36.4940 N   0  0  0  0  0  0
   41.8900   50.5390   36.1310 C   0  0  0  0  0  0
   41.5650   49.3620   36.2440 O   0  0  0  0  0  0
   40.8980   51.5510   35.5450 C   0  0  0  0  0  0
   39.5180   50.9170   35.3380 C   0  0  2  0  0  0
   38.6520   51.7750   34.5160 N   0  3  0  0  0  0
   38.8570   50.6300   36.6870 C   0  0  0  0  0  0
   37.4010   50.1840   36.5100 C   0  0  0  0  0  0
   37.1900   48.8700   36.1060 C   0  0  0  0  0  0
   35.9080   48.3460   35.9430 C   0  0  0  0  0  0
   35.7730   47.0710   35.5300 F   0  0  0  0  0  0
   34.8100   49.1700   36.1930 C   0  0  0  0  0  0
   33.5460   48.7070   36.1810 F   0  0  0  0  0  0
   35.0180   50.4930   36.5740 C   0  0  0  0  0  0
   36.3010   50.9960   36.7390 C   0  0  0  0  0  0
   36.4370   52.2790   37.1510 F   0  0  0  0  0  0
   45.8300   49.3540   39.2310 H   0  0  0  0  0  0
   47.7750   47.8700   38.8700 H   0  0  0  0  0  0
   50.1610   51.2500   37.8170 H   0  0  0  0  0  0
   48.2300   52.7320   38.2320 H   0  0  0  0  0  0
   44.9830   49.5220   38.9390 H   0  0  0  0  0  0
   43.2590   49.9480   39.0500 H   0  0  0  0  0  0
   45.0350   50.1910   36.5670 H   0  0  0  0  0  0
   43.7220   49.0140   36.8080 H   0  0  0  0  0  0
   42.5590   52.0560   39.2370 H   0  0  0  0  0  0
   43.7310   53.3360   39.6250 H   0  0  0  0  0  0
   42.0990   53.4930   37.5330 H   0  0  0  0  0  0
   43.7500   54.1570   37.4910 H   0  0  0  0  0  0
   42.9060   52.7980   35.4800 H   0  0  0  0  0  0
   44.5330   52.4520   36.1130 H   0  0  0  0  0  0
   40.7930   52.3950   36.2280 H   0  0  0  0  0  0
   41.2660   51.9050   34.5830 H   0  0  0  0  0  0
   39.6340   49.9330   34.8820 H   0  0  0  0  0  0
   37.7530   51.3310   34.3970 H   0  0  0  0  0  0
   38.5290   52.6660   34.9730 H   0  0  0  0  0  0
   39.0790   51.9170   33.6110 H   0  0  0  0  0  0
   39.4020   49.8370   37.1980 H   0  0  0  0  0  0
   38.8700   51.5330   37.2980 H   0  0  0  0  0  0
   38.0330   48.2230   35.9100 H   0  0  0  0  0  0
   34.1730   51.1440   36.7450 H   0  0  0  0  0  0
  1  2  2  0  0  0
  1  9  1  0  0  0
  1 34  1  0  0  0
  2  3  1  0  0  0
  2 35  1  0  0  0
  3  4  1  0  0  0
  3  7  2  0  0  0
  4  5  2  0  0  0
  4  6  1  0  0  0
  7  8  1  0  0  0
  7 36  1  0  0  0
  8  9  2  0  0  0
  8 37  1  0  0  0
  9 10  1  0  0  0
 10 11  2  0  0  0
 10 12  1  0  0  0
 12 13  1  0  0  0
 12 15  1  0  0  0
 13 14  1  0  0  0
 13 38  1  0  0  0
 13 39  1  0  0  0
 14 18  1  0  0  0
 14 40  1  0  0  0
 14 41  1  0  0  0
 15 16  1  0  0  0
 15 42  1  0  0  0
 15 43  1  0  0  0
 16 17  1  0  0  0
 16 44  1  0  0  0
 16 45  1  0  0  0
 17 18  1  0  0  0
 17 46  1  0  0  0
 17 47  1  0  0  0
 18 19  1  0  0  0
 19 20  2  0  0  0
 19 21  1  0  0  0
 21 22  1  0  0  0
 21 48  1  0  0  0
 21 49  1  0  0  0
 22 23  1  0  0  0
 22 24  1  0  0  0
 22 50  1  0  0  0
 23 51  1  0  0  0
 23 52  1  0  0  0
 23 53  1  0  0  0
 24 25  1  0  0  0
 24 54  1  0  0  0
 24 55  1  0  0  0
 25 26  2  0  0  0
 25 32  1  0  0  0
 26 27  1  0  0  0
 26 56  1  0  0  0
 27 28  1  0  0  0
 27 29  2  0  0  0
 29 30  1  0  0  0
 29 31  1  0  0  0
 31 32  2  0  0  0
 31 57  1  0  0  0
 32 33  1  0  0  0
M  CHG  2   6  -1  23   1
M  END
> <s_m_entry_id>
27

> <s_m_entry_name>
P27487.27

$$$$
3f8s_lig_PF2
                    3D
 Structure written by MMmdl.
 51 54  0  0  1  0            999 V2000
   34.5990   47.3830   36.6520 F   0  0  0  0  0  0
   35.1220   48.1400   35.7170 C   0  0  0  0  0  0
   34.8160   47.7250   34.5120 F   0  0  0  0  0  0
   36.5700   47.8470   35.7540 C   0  0  0  0  0  0
   37.0260   48.9680   34.8610 C   0  0  0  0  0  0
   34.9670   49.6720   35.8650 C   0  0  0  0  0  0
   36.2980   50.0850   35.4630 N   0  0  0  0  0  0
   36.9370   51.2460   35.5860 C   0  0  0  0  0  0
   36.4460   52.2450   36.0410 O   0  0  0  0  0  0
   38.3610   51.2280   35.0370 C   0  0  1  0  0  0
   38.9360   52.5450   34.7980 N   0  3  0  0  0  0
   40.3850   52.3320   34.7770 C   0  0  0  0  0  0
   39.3670   50.5530   35.9670 C   0  0  0  0  0  0
   40.6910   50.9620   35.3880 C   0  0  2  0  0  0
   41.8430   51.0390   36.3380 N   0  0  0  0  0  0
   43.0930   51.1650   35.5440 C   0  0  0  0  0  0
   44.2430   51.5770   36.4630 C   0  0  0  0  0  0
   44.3410   50.6170   37.5630 N   0  0  0  0  0  0
   43.1640   49.9730   38.1840 C   0  0  0  0  0  0
   41.9760   49.8470   37.2080 C   0  0  0  0  0  0
   45.5960   50.3620   38.0320 C   0  0  0  0  0  0
   46.6700   50.9840   37.4460 N   0  0  0  0  0  0
   47.9350   50.7690   37.8650 C   0  0  0  0  0  0
   48.1490   49.8780   38.9040 C   0  0  0  0  0  0
   47.0410   49.2520   39.4990 C   0  0  0  0  0  0
   45.7850   49.4960   39.0690 N   0  0  0  0  0  0
   36.9270   47.9040   36.7830 H   0  0  0  0  0  0
   36.7490   46.8450   35.3630 H   0  0  0  0  0  0
   38.1100   49.0630   34.9200 H   0  0  0  0  0  0
   36.7360   48.7550   33.8320 H   0  0  0  0  0  0
   34.1720   50.0230   35.2070 H   0  0  0  0  0  0
   34.7170   49.9150   36.8980 H   0  0  0  0  0  0
   38.3740   50.7120   34.0770 H   0  0  0  0  0  0
   38.6020   52.9050   33.9160 H   0  0  0  0  0  0
   40.7430   52.3660   33.7480 H   0  0  0  0  0  0
   40.8760   53.1130   35.3580 H   0  0  0  0  0  0
   39.2250   50.9190   36.9840 H   0  0  0  0  0  0
   39.2160   49.4740   35.9450 H   0  0  0  0  0  0
   41.1260   50.3130   34.6270 H   0  0  0  0  0  0
   43.3270   50.2080   35.0790 H   0  0  0  0  0  0
   42.9580   51.9220   34.7720 H   0  0  0  0  0  0
   45.1750   51.5840   35.8990 H   0  0  0  0  0  0
   44.0520   52.5730   36.8610 H   0  0  0  0  0  0
   43.4330   48.9710   38.5180 H   0  0  0  0  0  0
   42.8350   50.5640   39.0390 H   0  0  0  0  0  0
   41.0660   49.7210   37.7940 H   0  0  0  0  0  0
   42.1350   48.9620   36.5910 H   0  0  0  0  0  0
   48.7560   51.2870   37.3920 H   0  0  0  0  0  0
   49.1550   49.6760   39.2430 H   0  0  0  0  0  0
   47.1860   48.5600   40.3160 H   0  0  0  0  0  0
   38.6640   53.1717   35.5419 H   0  0  0  0  0  0
  1  2  1  0  0  0
  2  3  1  0  0  0
  2  4  1  0  0  0
  2  6  1  0  0  0
  4  5  1  0  0  0
  4 27  1  0  0  0
  4 28  1  0  0  0
  5  7  1  0  0  0
  5 29  1  0  0  0
  5 30  1  0  0  0
  6  7  1  0  0  0
  6 31  1  0  0  0
  6 32  1  0  0  0
  7  8  1  0  0  0
  8  9  2  0  0  0
  8 10  1  0  0  0
 10 11  1  0  0  0
 10 13  1  0  0  0
 10 33  1  0  0  0
 11 12  1  0  0  0
 11 34  1  0  0  0
 11 51  1  0  0  0
 12 14  1  0  0  0
 12 35  1  0  0  0
 12 36  1  0  0  0
 13 14  1  0  0  0
 13 37  1  0  0  0
 13 38  1  0  0  0
 14 15  1  0  0  0
 14 39  1  0  0  0
 15 16  1  0  0  0
 15 20  1  0  0  0
 16 17  1  0  0  0
 16 40  1  0  0  0
 16 41  1  0  0  0
 17 18  1  0  0  0
 17 42  1  0  0  0
 17 43  1  0  0  0
 18 19  1  0  0  0
 18 21  1  0  0  0
 19 20  1  0  0  0
 19 44  1  0  0  0
 19 45  1  0  0  0
 20 46  1  0  0  0
 20 47  1  0  0  0
 21 22  2  0  0  0
 21 26  1  0  0  0
 22 23  1  0  0  0
 23 24  2  0  0  0
 23 48  1  0  0  0
 24 25  1  0  0  0
 24 49  1  0  0  0
 25 26  2  0  0  0
 25 50  1  0  0  0
M  CHG  1  11   1
M  END
> <s_m_entry_id>
28

> <s_m_entry_name>
P27487.28

$$$$
3g0b_lig_T22
                    3D
 Structure written by MMmdl.
 47 49  0  0  1  0            999 V2000
   37.0430   47.4940   39.5630 O   0  0  0  0  0  0
   37.8760   48.4090   39.7670 C   0  0  0  0  0  0
   38.1010   48.8120   41.0450 N   0  0  0  0  0  0
   37.3510   48.1610   42.1390 C   0  0  0  0  0  0
   38.5190   48.9800   38.7240 N   0  0  0  0  0  0
   38.2320   48.4910   37.3490 C   0  0  0  0  0  0
   36.7800   48.6600   36.8950 C   0  0  0  0  0  0
   36.0530   49.8680   37.0270 C   0  0  0  0  0  0
   36.5550   50.9460   37.5670 C   0  0  0  0  0  0
   36.9990   51.9270   38.0340 N   0  0  0  0  0  0
   34.7240   49.9150   36.5730 C   0  0  0  0  0  0
   34.1220   48.7910   35.9810 C   0  0  0  0  0  0
   34.8540   47.6100   35.8220 C   0  0  0  0  0  0
   36.1710   47.5600   36.2880 C   0  0  0  0  0  0
   39.4320   49.9760   38.9620 C   0  0  0  0  0  0
   39.6730   50.4120   40.2720 C   0  0  0  0  0  0
   38.9860   49.8020   41.3020 C   0  0  0  0  0  0
   39.2220   50.1940   42.4590 O   0  0  0  0  0  0
   40.3020   50.5230   37.9870 N   0  0  0  0  0  0
   40.4780   51.9900   37.8470 C   0  0  0  0  0  0
   40.7780   52.4690   36.4180 C   0  0  2  0  0  0
   39.5580   52.4720   35.5660 N   0  3  0  0  0  0
   41.8650   51.6180   35.7780 C   0  0  0  0  0  0
   41.5360   50.1330   35.8620 C   0  0  0  0  0  0
   41.2740   49.6780   37.2810 C   0  0  0  0  0  0
   37.6480   48.5970   43.0940 H   0  0  0  0  0  0
   36.2830   48.3120   41.9880 H   0  0  0  0  0  0
   37.5690   47.0930   42.1460 H   0  0  0  0  0  0
   38.8490   49.0340   36.6330 H   0  0  0  0  0  0
   38.4570   47.4260   37.2880 H   0  0  0  0  0  0
   34.1500   50.8250   36.6760 H   0  0  0  0  0  0
   33.0950   48.8400   35.6510 H   0  0  0  0  0  0
   34.4000   46.7540   35.3440 H   0  0  0  0  0  0
   36.7180   46.6370   36.1690 H   0  0  0  0  0  0
   40.3830   51.2060   40.4540 H   0  0  0  0  0  0
   39.5670   52.4970   38.1630 H   0  0  0  0  0  0
   41.3110   52.3170   38.4700 H   0  0  0  0  0  0
   41.2320   53.4590   36.4530 H   0  0  0  0  0  0
   39.7960   52.7920   34.6380 H   0  0  0  0  0  0
   39.1820   51.5360   35.5140 H   0  0  0  0  0  0
   38.8680   53.0890   35.9680 H   0  0  0  0  0  0
   41.9680   51.8880   34.7270 H   0  0  0  0  0  0
   42.8110   51.7890   36.2920 H   0  0  0  0  0  0
   40.6430   49.9240   35.2720 H   0  0  0  0  0  0
   42.3730   49.5530   35.4720 H   0  0  0  0  0  0
   42.2250   49.6940   37.8130 H   0  0  0  0  0  0
   40.9020   48.6550   37.2350 H   0  0  0  0  0  0
  1  2  2  0  0  0
  2  3  1  0  0  0
  2  5  1  0  0  0
  3  4  1  0  0  0
  3 17  1  0  0  0
  4 26  1  0  0  0
  4 27  1  0  0  0
  4 28  1  0  0  0
  5  6  1  0  0  0
  5 15  1  0  0  0
  6  7  1  0  0  0
  6 29  1  0  0  0
  6 30  1  0  0  0
  7  8  2  0  0  0
  7 14  1  0  0  0
  8  9  1  0  0  0
  8 11  1  0  0  0
  9 10  3  0  0  0
 11 12  2  0  0  0
 11 31  1  0  0  0
 12 13  1  0  0  0
 12 32  1  0  0  0
 13 14  2  0  0  0
 13 33  1  0  0  0
 14 34  1  0  0  0
 15 16  2  0  0  0
 15 19  1  0  0  0
 16 17  1  0  0  0
 16 35  1  0  0  0
 17 18  2  0  0  0
 19 20  1  0  0  0
 19 25  1  0  0  0
 20 21  1  0  0  0
 20 36  1  0  0  0
 20 37  1  0  0  0
 21 22  1  0  0  0
 21 23  1  0  0  0
 21 38  1  0  0  0
 22 39  1  0  0  0
 22 40  1  0  0  0
 22 41  1  0  0  0
 23 24  1  0  0  0
 23 42  1  0  0  0
 23 43  1  0  0  0
 24 25  1  0  0  0
 24 44  1  0  0  0
 24 45  1  0  0  0
 25 46  1  0  0  0
 25 47  1  0  0  0
M  CHG  1  22   1
M  END
> <s_m_entry_id>
29

> <s_m_entry_name>
P27487.29

$$$$
3g0d_lig_XIH
                    3D
 Structure written by MMmdl.
 53 56  0  0  1  0            999 V2000
   38.6690   49.0550   39.8220 C   0  0  0  0  0  0
   39.4870   49.8500   40.7330 C   0  0  0  0  0  0
   40.0220   50.2600   38.7130 C   0  0  0  0  0  0
   41.5740   49.9390   36.8640 C   0  0  0  0  0  0
   41.2470   52.8080   36.2830 C   0  0  1  0  0  0
   40.8450   52.3260   37.6730 C   0  0  0  0  0  0
   38.5270   48.7650   37.2880 C   0  0  0  0  0  0
   35.1250   47.8330   35.9240 C   0  0  0  0  0  0
   34.3700   48.9820   36.1240 C   0  0  0  0  0  0
   34.9650   50.0890   36.7200 C   0  0  0  0  0  0
   36.7800   51.1510   37.6570 C   0  0  0  0  0  0
   38.3940   48.9140   42.6100 C   0  0  0  0  0  0
   36.5780   47.2600   42.4850 C   0  0  0  0  0  0
   37.5520   48.1210   41.8040 N   0  0  0  0  0  0
   37.6520   48.1560   40.3970 C   0  0  0  0  0  0
   36.9180   47.4430   39.6890 O   0  0  0  0  0  0
   40.3300   50.5880   39.9910 N   0  0  0  0  0  0
   40.7740   50.8500   37.7210 N   0  0  0  0  0  0
   42.2190   50.5920   35.6310 C   0  0  0  0  0  0
   42.5150   52.0790   35.8200 C   0  0  0  0  0  0
   40.1480   52.5020   35.3890 N   0  3  0  0  0  0
   39.0340   49.3410   38.5520 N   0  0  0  0  0  0
   37.0620   48.9130   36.9240 C   0  0  0  0  0  0
   36.4610   47.8030   36.3260 C   0  0  0  0  0  0
   36.3090   50.0720   37.1120 C   0  0  0  0  0  0
   37.1510   52.1220   38.1900 N   0  0  0  0  0  0
   39.3630   49.7930   42.0640 N   0  0  0  0  0  0
   40.2150   50.6080   42.9590 C   0  0  0  0  0  0
   38.2610   48.8260   43.8490 O   0  0  0  0  0  0
   42.3890   49.5120   37.4490 H   0  0  0  0  0  0
   40.9360   49.1370   36.4910 H   0  0  0  0  0  0
   41.4490   53.8790   36.3120 H   0  0  0  0  0  0
   41.5820   52.6650   38.4020 H   0  0  0  0  0  0
   39.8660   52.7330   37.9310 H   0  0  0  0  0  0
   39.0550   49.2130   36.4460 H   0  0  0  0  0  0
   38.6920   47.6880   37.2860 H   0  0  0  0  0  0
   34.6760   46.9670   35.4600 H   0  0  0  0  0  0
   33.3350   49.0090   35.8180 H   0  0  0  0  0  0
   34.3890   50.9860   36.8880 H   0  0  0  0  0  0
   36.0000   46.7090   41.7440 H   0  0  0  0  0  0
   37.1030   46.5580   43.1310 H   0  0  0  0  0  0
   35.9080   47.8740   43.0860 H   0  0  0  0  0  0
   43.1640   50.0950   35.4080 H   0  0  0  0  0  0
   41.5500   50.4960   34.7770 H   0  0  0  0  0  0
   42.8530   52.5020   34.8740 H   0  0  0  0  0  0
   43.2970   52.1970   36.5710 H   0  0  0  0  0  0
   40.3780   52.8070   34.4540 H   0  0  0  0  0  0
   39.9830   51.5060   35.3850 H   0  0  0  0  0  0
   39.3150   52.9790   35.7020 H   0  0  0  0  0  0
   37.0500   46.9100   36.1750 H   0  0  0  0  0  0
   39.9490   50.4080   43.9970 H   0  0  0  0  0  0
   41.2620   50.3510   42.7970 H   0  0  0  0  0  0
   40.0640   51.6650   42.7430 H   0  0  0  0  0  0
  1  2  2  0  0  0
  1 15  1  0  0  0
  1 22  1  0  0  0
  2 17  1  0  0  0
  2 27  1  0  0  0
  3 17  2  0  0  0
  3 18  1  0  0  0
  3 22  1  0  0  0
  4 18  1  0  0  0
  4 19  1  0  0  0
  4 30  1  0  0  0
  4 31  1  0  0  0
  5  6  1  0  0  0
  5 20  1  0  0  0
  5 21  1  0  0  0
  5 32  1  0  0  0
  6 18  1  0  0  0
  6 33  1  0  0  0
  6 34  1  0  0  0
  7 22  1  0  0  0
  7 23  1  0  0  0
  7 35  1  0  0  0
  7 36  1  0  0  0
  8  9  2  0  0  0
  8 24  1  0  0  0
  8 37  1  0  0  0
  9 10  1  0  0  0
  9 38  1  0  0  0
 10 25  2  0  0  0
 10 39  1  0  0  0
 11 25  1  0  0  0
 11 26  3  0  0  0
 12 14  1  0  0  0
 12 27  1  0  0  0
 12 29  2  0  0  0
 13 14  1  0  0  0
 13 40  1  0  0  0
 13 41  1  0  0  0
 13 42  1  0  0  0
 14 15  1  0  0  0
 15 16  2  0  0  0
 19 20  1  0  0  0
 19 43  1  0  0  0
 19 44  1  0  0  0
 20 45  1  0  0  0
 20 46  1  0  0  0
 21 47  1  0  0  0
 21 48  1  0  0  0
 21 49  1  0  0  0
 23 24  2  0  0  0
 23 25  1  0  0  0
 24 50  1  0  0  0
 27 28  1  0  0  0
 28 51  1  0  0  0
 28 52  1  0  0  0
 28 53  1  0  0  0
M  CHG  1  21   1
M  END
> <s_m_entry_id>
30

> <s_m_entry_name>
P27487.30

$$$$
3g0g_lig_RUM
                    3D
 Structure written by MMmdl.
 43 45  0  0  1  0            999 V2000
   36.8950   52.0880   37.8510 N   0  0  0  0  0  0
   36.5350   51.0800   37.3960 C   0  0  0  0  0  0
   36.1120   49.9770   36.8720 C   0  0  0  0  0  0
   34.7980   49.9160   36.3940 C   0  0  0  0  0  0
   34.3100   48.7410   35.8000 C   0  0  0  0  0  0
   35.1090   47.6020   35.6930 C   0  0  0  0  0  0
   36.4220   47.6100   36.1750 C   0  0  0  0  0  0
   36.9710   48.7520   36.7660 C   0  0  0  0  0  0
   38.4090   48.6970   37.2370 C   0  0  0  0  0  0
   38.5930   49.1720   38.6180 N   0  0  0  0  0  0
   39.4970   50.2390   38.9600 C   0  0  0  0  0  0
   39.6390   50.6180   40.2560 N   0  0  0  0  0  0
   38.9560   50.0620   41.2770 C   0  0  0  0  0  0
   38.0440   49.0340   41.0390 C   0  0  0  0  0  0
   37.0510   48.1690   42.4070 Br  0  0  0  0  0  0
   37.8490   48.5580   39.6560 C   0  0  0  0  0  0
   37.0320   47.6270   39.4780 O   0  0  0  0  0  0
   40.3380   50.8790   38.0260 N   0  0  0  0  0  0
   40.3970   52.3440   37.8860 C   0  0  0  0  0  0
   40.9560   52.7430   36.5070 C   0  0  2  0  0  0
   39.9550   52.5120   35.4900 N   0  3  0  0  0  0
   42.2060   51.9400   36.1490 C   0  0  0  0  0  0
   41.7870   50.4840   36.0080 C   0  0  0  0  0  0
   41.2220   49.9380   37.3140 C   0  0  0  0  0  0
   34.1510   50.7770   36.4810 H   0  0  0  0  0  0
   33.3010   48.7080   35.4180 H   0  0  0  0  0  0
   34.7140   46.7060   35.2370 H   0  0  0  0  0  0
   37.0330   46.7220   36.0940 H   0  0  0  0  0  0
   38.7660   47.6680   37.1960 H   0  0  0  0  0  0
   39.0280   49.3220   36.5920 H   0  0  0  0  0  0
   39.1150   50.4120   42.2860 H   0  0  0  0  0  0
   39.3940   52.7600   37.9910 H   0  0  0  0  0  0
   41.0440   52.7580   38.6590 H   0  0  0  0  0  0
   41.2310   53.7970   36.5180 H   0  0  0  0  0  0
   40.3240   52.7750   34.5870 H   0  0  0  0  0  0
   39.7050   51.5340   35.4780 H   0  0  0  0  0  0
   39.1350   53.0670   35.6920 H   0  0  0  0  0  0
   42.6210   52.3110   35.2110 H   0  0  0  0  0  0
   42.9470   52.0480   36.9420 H   0  0  0  0  0  0
   41.0200   50.4000   35.2380 H   0  0  0  0  0  0
   42.6510   49.8830   35.7270 H   0  0  0  0  0  0
   42.0700   49.6840   37.9490 H   0  0  0  0  0  0
   40.6670   49.0320   37.0700 H   0  0  0  0  0  0
  1  2  3  0  0  0
  2  3  1  0  0  0
  3  4  2  0  0  0
  3  8  1  0  0  0
  4  5  1  0  0  0
  4 25  1  0  0  0
  5  6  2  0  0  0
  5 26  1  0  0  0
  6  7  1  0  0  0
  6 27  1  0  0  0
  7  8  2  0  0  0
  7 28  1  0  0  0
  8  9  1  0  0  0
  9 10  1  0  0  0
  9 29  1  0  0  0
  9 30  1  0  0  0
 10 11  1  0  0  0
 10 16  1  0  0  0
 11 12  2  0  0  0
 11 18  1  0  0  0
 12 13  1  0  0  0
 13 14  2  0  0  0
 13 31  1  0  0  0
 14 15  1  0  0  0
 14 16  1  0  0  0
 16 17  2  0  0  0
 18 19  1  0  0  0
 18 24  1  0  0  0
 19 20  1  0  0  0
 19 32  1  0  0  0
 19 33  1  0  0  0
 20 21  1  0  0  0
 20 22  1  0  0  0
 20 34  1  0  0  0
 21 35  1  0  0  0
 21 36  1  0  0  0
 21 37  1  0  0  0
 22 23  1  0  0  0
 22 38  1  0  0  0
 22 39  1  0  0  0
 23 24  1  0  0  0
 23 40  1  0  0  0
 23 41  1  0  0  0
 24 42  1  0  0  0
 24 43  1  0  0  0
M  CHG  1  21   1
M  END
> <s_m_entry_id>
31

> <s_m_entry_name>
P27487.31

$$$$
3hab_lig_677
                    3D
 Structure written by MMmdl.
 44 47  0  0  1  0            999 V2000
   33.5220   48.6840   36.0810 F   0  0  0  0  0  0
   34.7440   49.2340   36.1580 C   0  0  0  0  0  0
   34.9160   50.5570   36.5510 C   0  0  0  0  0  0
   36.2220   51.0690   36.6220 C   0  0  0  0  0  0
   36.3820   52.3310   37.0250 F   0  0  0  0  0  0
   35.8530   48.4620   35.8320 C   0  0  0  0  0  0
   35.6560   47.1980   35.4460 F   0  0  0  0  0  0
   37.1440   48.9780   35.8950 C   0  0  0  0  0  0
   37.3450   50.2920   36.3110 C   0  0  0  0  0  0
   38.7340   50.8820   36.3700 C   0  0  1  0  0  0
   39.7650   50.0240   37.1380 C   0  0  0  0  0  0
   39.2030   51.1710   34.9300 C   0  0  1  0  0  0
   38.1920   51.9800   34.2350 N   0  3  0  0  0  0
   40.5650   51.8840   34.8750 C   0  0  0  0  0  0
   41.5290   51.2950   35.8080 N   0  0  0  0  0  0
   41.1880   50.4690   36.8360 C   0  0  0  0  0  0
   42.2940   50.1080   37.5420 N   0  0  0  0  0  0
   42.8650   51.4940   35.8160 C   0  0  0  0  0  0
   43.7860   52.2340   35.0450 C   0  0  0  0  0  0
   45.1640   52.1850   35.3750 C   0  0  0  0  0  0
   43.3790   50.6990   36.9630 C   0  0  0  0  0  0
   44.7500   50.7010   37.2440 C   0  0  0  0  0  0
   45.6580   51.4350   36.4660 C   0  0  0  0  0  0
   47.2610   51.4170   36.8210 S   0  0  0  0  0  0
   48.0170   51.2140   35.6170 O   0  0  0  0  0  0
   47.5600   52.7520   37.3040 O   0  0  0  0  0  0
   47.6330   50.3160   37.9810 C   0  0  0  0  0  0
   34.0550   51.1650   36.7930 H   0  0  0  0  0  0
   37.9860   48.3590   35.6230 H   0  0  0  0  0  0
   38.6850   51.8900   36.7820 H   0  0  0  0  0  0
   39.5920   50.1210   38.2100 H   0  0  0  0  0  0
   39.6600   48.9790   36.8460 H   0  0  0  0  0  0
   39.3880   50.2310   34.4120 H   0  0  0  0  0  0
   38.5000   52.1680   33.2930 H   0  0  0  0  0  0
   37.3170   51.4760   34.2080 H   0  0  0  0  0  0
   38.0620   52.8530   34.7280 H   0  0  0  0  0  0
   40.9760   51.8060   33.8680 H   0  0  0  0  0  0
   40.4370   52.9350   35.1350 H   0  0  0  0  0  0
   43.4380   52.8300   34.2140 H   0  0  0  0  0  0
   45.8810   52.7340   34.7830 H   0  0  0  0  0  0
   45.1310   50.1280   38.0760 H   0  0  0  0  0  0
   48.7050   50.3450   38.1790 H   0  0  0  0  0  0
   47.0890   50.5540   38.8960 H   0  0  0  0  0  0
   47.3540   49.3190   37.6400 H   0  0  0  0  0  0
  1  2  1  0  0  0
  2  3  2  0  0  0
  2  6  1  0  0  0
  3  4  1  0  0  0
  3 28  1  0  0  0
  4  5  1  0  0  0
  4  9  2  0  0  0
  6  7  1  0  0  0
  6  8  2  0  0  0
  8  9  1  0  0  0
  8 29  1  0  0  0
  9 10  1  0  0  0
 10 11  1  0  0  0
 10 12  1  0  0  0
 10 30  1  0  0  0
 11 16  1  0  0  0
 11 31  1  0  0  0
 11 32  1  0  0  0
 12 13  1  0  0  0
 12 14  1  0  0  0
 12 33  1  0  0  0
 13 34  1  0  0  0
 13 35  1  0  0  0
 13 36  1  0  0  0
 14 15  1  0  0  0
 14 37  1  0  0  0
 14 38  1  0  0  0
 15 16  1  0  0  0
 15 18  1  0  0  0
 16 17  2  0  0  0
 17 21  1  0  0  0
 18 19  2  0  0  0
 18 21  1  0  0  0
 19 20  1  0  0  0
 19 39  1  0  0  0
 20 23  2  0  0  0
 20 40  1  0  0  0
 21 22  2  0  0  0
 22 23  1  0  0  0
 22 41  1  0  0  0
 23 24  1  0  0  0
 24 25  2  0  0  0
 24 26  2  0  0  0
 24 27  1  0  0  0
 27 42  1  0  0  0
 27 43  1  0  0  0
 27 44  1  0  0  0
M  CHG  1  13   1
M  END
> <s_m_entry_id>
32

> <s_m_entry_name>
P27487.32

$$$$
3hac_lig_361
                    3D
 Structure written by MMmdl.
 37 40  0  0  1  0            999 V2000
   35.6120   47.2340   35.4050 F   0  0  0  0  0  0
   35.8190   48.4970   35.8190 C   0  0  0  0  0  0
   34.7360   49.2750   36.2020 C   0  0  0  0  0  0
   33.5040   48.7540   36.1540 F   0  0  0  0  0  0
   37.1170   49.0160   35.8380 C   0  0  0  0  0  0
   37.3260   50.3230   36.2670 C   0  0  0  0  0  0
   36.2260   51.0980   36.6390 C   0  0  0  0  0  0
   36.4160   52.3500   37.0470 F   0  0  0  0  0  0
   34.9290   50.5920   36.6140 C   0  0  0  0  0  0
   38.7040   50.9210   36.3060 C   0  0  2  0  0  0
   39.1390   51.2990   34.8790 C   0  0  1  0  0  0
   38.1040   52.0580   34.1730 N   0  3  0  0  0  0
   40.4470   52.0950   34.9090 C   0  0  0  0  0  0
   41.4390   51.3960   35.7370 N   0  0  0  0  0  0
   42.7610   51.6110   35.7100 C   0  0  0  0  0  0
   43.3390   50.7050   36.7230 C   0  0  0  0  0  0
   42.2850   50.0390   37.2950 N   0  0  0  0  0  0
   41.1470   50.4600   36.6830 C   0  0  0  0  0  0
   39.7360   49.9890   36.9970 C   0  0  0  0  0  0
   44.7250   50.7190   36.9090 C   0  0  0  0  0  0
   45.4890   51.5330   36.1580 N   0  0  0  0  0  0
   44.9870   52.3730   35.2140 C   0  0  0  0  0  0
   43.6060   52.4420   34.9690 C   0  0  0  0  0  0
   37.9480   48.4040   35.5220 H   0  0  0  0  0  0
   34.0830   51.1970   36.9060 H   0  0  0  0  0  0
   38.7180   51.7600   37.0010 H   0  0  0  0  0  0
   39.4000   50.3960   34.3260 H   0  0  0  0  0  0
   38.4270   52.2860   33.2440 H   0  0  0  0  0  0
   37.2630   51.5020   34.1080 H   0  0  0  0  0  0
   37.9060   52.9100   34.6780 H   0  0  0  0  0  0
   40.8340   52.1980   33.8950 H   0  0  0  0  0  0
   40.2620   53.0840   35.3290 H   0  0  0  0  0  0
   39.5800   50.0110   38.0760 H   0  0  0  0  0  0
   39.6070   48.9700   36.6320 H   0  0  0  0  0  0
   45.1770   50.0790   37.6530 H   0  0  0  0  0  0
   45.6520   53.0000   34.6400 H   0  0  0  0  0  0
   43.1920   53.1140   34.2320 H   0  0  0  0  0  0
  1  2  1  0  0  0
  2  3  2  0  0  0
  2  5  1  0  0  0
  3  4  1  0  0  0
  3  9  1  0  0  0
  5  6  2  0  0  0
  5 24  1  0  0  0
  6  7  1  0  0  0
  6 10  1  0  0  0
  7  8  1  0  0  0
  7  9  2  0  0  0
  9 25  1  0  0  0
 10 11  1  0  0  0
 10 19  1  0  0  0
 10 26  1  0  0  0
 11 12  1  0  0  0
 11 13  1  0  0  0
 11 27  1  0  0  0
 12 28  1  0  0  0
 12 29  1  0  0  0
 12 30  1  0  0  0
 13 14  1  0  0  0
 13 31  1  0  0  0
 13 32  1  0  0  0
 14 15  1  0  0  0
 14 18  1  0  0  0
 15 16  2  0  0  0
 15 23  1  0  0  0
 16 17  1  0  0  0
 16 20  1  0  0  0
 17 18  2  0  0  0
 18 19  1  0  0  0
 19 33  1  0  0  0
 19 34  1  0  0  0
 20 21  2  0  0  0
 20 35  1  0  0  0
 21 22  1  0  0  0
 22 23  2  0  0  0
 22 36  1  0  0  0
 23 37  1  0  0  0
M  CHG  1  12   1
M  END
> <s_m_entry_id>
33

> <s_m_entry_name>
P27487.33

$$$$
3kwf_lig_B1Q
                    3D
 Structure written by MMmdl.
 57 60  0  0  1  0            999 V2000
   37.6180   50.4270   36.3250 N   0  0  0  0  0  0
   39.0290   50.8130   36.3720 C   0  0  1  0  0  0
   41.1880   50.2640   37.3090 N   0  3  1  0  0  0
   41.8590   50.3850   35.9780 C   0  0  2  0  0  0
   36.6230   51.2870   36.5460 C   0  0  0  0  0  0
   43.2910   50.7960   36.1520 C   0  0  0  0  0  0
   39.8140   49.7540   37.1480 C   0  0  0  0  0  0
   41.0870   51.3150   35.0140 C   0  0  0  0  0  0
   39.5940   50.9930   34.9480 C   0  0  2  0  0  0
   43.9500   50.5810   37.3710 C   0  0  0  0  0  0
   44.0070   51.3780   35.0880 C   0  0  0  0  0  0
   45.3520   51.7480   35.2370 C   0  0  0  0  0  0
   37.2640   49.0400   36.0420 C   0  0  0  0  0  0
   45.2890   50.9420   37.5050 C   0  0  0  0  0  0
   46.0010   51.5210   36.4470 C   0  0  0  0  0  0
   35.3150   50.5680   36.3110 C   0  0  0  0  0  0
   41.9300   49.3610   38.2050 C   0  0  0  0  0  0
   35.7810   49.2440   35.6990 C   0  0  2  0  0  0
   36.7100   52.4550   36.9000 O   0  0  0  0  0  0
   43.2760   49.9640   38.5770 C   0  0  0  0  0  0
   38.9250   52.0700   34.2510 N   0  3  0  0  0  0
   46.0760   52.3060   34.2060 O   0  0  0  0  0  0
   47.3310   51.8740   36.6060 O   0  0  0  0  0  0
   34.9210   47.1510   35.1780 F   0  0  0  0  0  0
   34.9370   48.0950   36.1730 C   0  0  0  0  0  0
   48.1900   51.1940   37.5360 C   0  0  0  0  0  0
   45.5040   53.0540   33.1290 C   0  0  0  0  0  0
   39.1220   51.8000   36.8260 H   0  0  0  0  0  0
   41.7240   49.4600   35.4180 H   0  0  0  0  0  0
   39.3470   49.5950   38.1190 H   0  0  0  0  0  0
   39.8140   48.8190   36.5880 H   0  0  0  0  0  0
   41.1900   52.3480   35.3440 H   0  0  0  0  0  0
   41.4940   51.2130   34.0070 H   0  0  0  0  0  0
   39.4490   50.0740   34.3800 H   0  0  0  0  0  0
   43.5220   51.5450   34.1370 H   0  0  0  0  0  0
   37.8730   48.6710   35.2160 H   0  0  0  0  0  0
   37.4440   48.4300   36.9270 H   0  0  0  0  0  0
   45.8020   50.7780   38.4420 H   0  0  0  0  0  0
   34.7950   50.4380   37.2600 H   0  0  0  0  0  0
   34.6940   51.1540   35.6340 H   0  0  0  0  0  0
   41.3540   49.1960   39.1150 H   0  0  0  0  0  0
   42.0970   48.4080   37.7030 H   0  0  0  0  0  0
   35.6500   49.2150   34.6170 H   0  0  0  0  0  0
   43.9100   49.1760   38.9840 H   0  0  0  0  0  0
   43.1170   50.7300   39.3360 H   0  0  0  0  0  0
   39.3150   52.1650   33.3230 H   0  0  0  0  0  0
   37.9390   51.8660   34.1820 H   0  0  0  0  0  0
   39.0560   52.9330   34.7600 H   0  0  0  0  0  0
   35.3680   47.6780   37.0830 H   0  0  0  0  0  0
   33.9260   48.4460   36.3770 H   0  0  0  0  0  0
   49.1870   51.6320   37.4970 H   0  0  0  0  0  0
   47.7890   51.2950   38.5440 H   0  0  0  0  0  0
   48.2480   50.1370   37.2720 H   0  0  0  0  0  0
   46.2940   53.3810   32.4530 H   0  0  0  0  0  0
   44.7970   52.4270   32.5860 H   0  0  0  0  0  0
   44.9830   53.9250   33.5280 H   0  0  0  0  0  0
   41.1688   51.1674   37.7602 H   0  0  0  0  0  0
  1  2  1  0  0  0
  1  5  1  0  0  0
  1 13  1  0  0  0
  2  7  1  0  0  0
  2  9  1  0  0  0
  2 28  1  0  0  0
  3  4  1  0  0  0
  3  7  1  0  0  0
  3 17  1  0  0  0
  3 57  1  0  0  0
  4  6  1  0  0  0
  4  8  1  0  0  0
  4 29  1  0  0  0
  5 16  1  0  0  0
  5 19  2  0  0  0
  6 10  2  0  0  0
  6 11  1  0  0  0
  7 30  1  0  0  0
  7 31  1  0  0  0
  8  9  1  0  0  0
  8 32  1  0  0  0
  8 33  1  0  0  0
  9 21  1  0  0  0
  9 34  1  0  0  0
 10 14  1  0  0  0
 10 20  1  0  0  0
 11 12  2  0  0  0
 11 35  1  0  0  0
 12 15  1  0  0  0
 12 22  1  0  0  0
 13 18  1  0  0  0
 13 36  1  0  0  0
 13 37  1  0  0  0
 14 15  2  0  0  0
 14 38  1  0  0  0
 15 23  1  0  0  0
 16 18  1  0  0  0
 16 39  1  0  0  0
 16 40  1  0  0  0
 17 20  1  0  0  0
 17 41  1  0  0  0
 17 42  1  0  0  0
 18 25  1  0  0  0
 18 43  1  0  0  0
 20 44  1  0  0  0
 20 45  1  0  0  0
 21 46  1  0  0  0
 21 47  1  0  0  0
 21 48  1  0  0  0
 22 27  1  0  0  0
 23 26  1  0  0  0
 24 25  1  0  0  0
 25 49  1  0  0  0
 25 50  1  0  0  0
 26 51  1  0  0  0
 26 52  1  0  0  0
 26 53  1  0  0  0
 27 54  1  0  0  0
 27 55  1  0  0  0
 27 56  1  0  0  0
M  CHG  2   3   1  21   1
M  END
> <s_m_entry_id>
34

> <s_m_entry_name>
P27487.34

$$$$
3nox_lig_6A5
                    3D
 Structure written by MMmdl.
 48 51  0  0  1  0            999 V2000
   38.9380   51.1120   37.3460 C   0  0  0  0  0  0
   39.6660   51.9750   36.5540 C   0  0  0  0  0  0
   40.6430   52.8080   37.1740 C   0  0  0  0  0  0
   40.8640   52.9040   38.4590 N   0  0  0  0  0  0
   39.0670   51.2630   38.6860 N   0  0  0  0  0  0
   40.0600   52.1100   39.2570 C   0  0  0  0  0  0
   40.0710   52.0180   40.5870 N   0  0  0  0  0  0
   39.0740   51.1040   40.8530 C   0  0  0  0  0  0
   38.4260   50.6100   39.7400 C   0  0  0  0  0  0
   38.9370   50.6350   42.2090 C   0  0  0  0  0  0
   39.9060   50.0830   42.7750 O   0  0  0  0  0  0
   37.7150   50.6590   42.7650 N   0  0  0  0  0  0
   41.5130   53.6970   36.3640 C   0  0  0  0  0  0
   37.8160   50.3140   36.8930 C   0  0  0  0  0  0
   39.6370   51.9150   35.0760 C   0  0  0  0  0  0
   38.3170   52.1520   34.6460 N   0  3  0  0  0  0
   38.0110   49.0150   36.4430 C   0  0  0  0  0  0
   36.8970   48.2840   36.0330 C   0  0  0  0  0  0
   35.6280   48.8850   36.1070 C   0  0  0  0  0  0
   35.4150   50.1460   36.5420 C   0  0  0  0  0  0
   36.5100   50.8490   36.9310 C   0  0  0  0  0  0
   36.2300   52.4280   37.4910 Cl  0  0  0  0  0  0
   34.2740   48.0380   35.6380 Cl  0  0  0  0  0  0
   36.6740   51.5880   42.2500 C   0  0  0  0  0  0
   35.3620   51.4150   43.0190 C   0  0  0  0  0  0
   35.6070   51.3320   44.3810 O   0  0  0  0  0  0
   36.2870   50.1440   44.6800 C   0  0  0  0  0  0
   37.6920   50.3450   44.2340 C   0  0  0  0  0  0
   37.6280   49.9120   39.5370 H   0  0  0  0  0  0
   42.1860   54.2460   37.0230 H   0  0  0  0  0  0
   42.0970   53.0970   35.6660 H   0  0  0  0  0  0
   40.8960   54.4020   35.8070 H   0  0  0  0  0  0
   40.3030   52.6750   34.6680 H   0  0  0  0  0  0
   39.9650   50.9300   34.7460 H   0  0  0  0  0  0
   38.2800   52.1150   33.6370 H   0  0  0  0  0  0
   37.7050   51.4470   35.0320 H   0  0  0  0  0  0
   38.0180   53.0640   34.9590 H   0  0  0  0  0  0
   39.0060   48.5960   36.4180 H   0  0  0  0  0  0
   37.0170   47.2760   35.6670 H   0  0  0  0  0  0
   34.4120   50.5470   36.5670 H   0  0  0  0  0  0
   37.0150   52.6160   42.3650 H   0  0  0  0  0  0
   36.4920   51.3810   41.1950 H   0  0  0  0  0  0
   34.7130   52.2700   42.8270 H   0  0  0  0  0  0
   34.8660   50.5020   42.6910 H   0  0  0  0  0  0
   36.2400   49.9570   45.7520 H   0  0  0  0  0  0
   35.8220   49.3150   44.1470 H   0  0  0  0  0  0
   38.2650   49.4370   44.4210 H   0  0  0  0  0  0
   38.1340   51.1730   44.7900 H   0  0  0  0  0  0
  1  2  2  0  0  0
  1  5  1  0  0  0
  1 14  1  0  0  0
  2  3  1  0  0  0
  2 15  1  0  0  0
  3  4  2  0  0  0
  3 13  1  0  0  0
  4  6  1  0  0  0
  5  6  1  0  0  0
  5  9  1  0  0  0
  6  7  2  0  0  0
  7  8  1  0  0  0
  8  9  2  0  0  0
  8 10  1  0  0  0
  9 29  1  0  0  0
 10 11  2  0  0  0
 10 12  1  0  0  0
 12 24  1  0  0  0
 12 28  1  0  0  0
 13 30  1  0  0  0
 13 31  1  0  0  0
 13 32  1  0  0  0
 14 17  2  0  0  0
 14 21  1  0  0  0
 15 16  1  0  0  0
 15 33  1  0  0  0
 15 34  1  0  0  0
 16 35  1  0  0  0
 16 36  1  0  0  0
 16 37  1  0  0  0
 17 18  1  0  0  0
 17 38  1  0  0  0
 18 19  2  0  0  0
 18 39  1  0  0  0
 19 20  1  0  0  0
 19 23  1  0  0  0
 20 21  2  0  0  0
 20 40  1  0  0  0
 21 22  1  0  0  0
 24 25  1  0  0  0
 24 41  1  0  0  0
 24 42  1  0  0  0
 25 26  1  0  0  0
 25 43  1  0  0  0
 25 44  1  0  0  0
 26 27  1  0  0  0
 27 28  1  0  0  0
 27 45  1  0  0  0
 27 46  1  0  0  0
 28 47  1  0  0  0
 28 48  1  0  0  0
M  CHG  1  16   1
M  END
> <s_m_entry_id>
35

> <s_m_entry_name>
P27487.35

$$$$
3q0t_lig_LGE
                    3D
 Structure written by MMmdl.
 50 52  0  0  1  0            999 V2000
   37.8590   49.0060   36.5600 C   0  0  0  0  0  0
   36.8310   48.1740   36.1690 C   0  0  0  0  0  0
   35.2180   50.0010   36.3480 C   0  0  0  0  0  0
   37.5780   50.3390   36.8470 C   0  0  0  0  0  0
   38.6680   51.2330   37.2870 C   0  0  0  0  0  0
   38.7900   51.5200   38.6320 C   0  0  0  0  0  0
   39.5720   51.8500   36.4100 C   0  0  0  0  0  0
   35.5340   48.6900   36.0710 C   0  0  0  0  0  0
   36.2600   50.8130   36.7400 C   0  0  0  0  0  0
   39.8090   52.3820   39.0410 C   0  0  0  0  0  0
   40.5540   52.7000   36.9390 C   0  0  0  0  0  0
   39.7510   52.5330   40.5200 C   0  0  0  0  0  0
   39.3150   49.9920   42.7140 C   0  0  0  0  0  0
   37.9790   51.0420   39.8060 C   0  0  0  0  0  0
   41.5680   53.3840   36.0920 C   0  0  0  0  0  0
   40.1120   48.6570   44.4820 C   0  0  0  0  0  0
   39.5140   51.6010   34.9320 C   0  0  0  0  0  0
   38.5350   51.2560   42.2970 C   0  0  0  0  0  0
   40.6970   52.9800   38.2620 N   0  0  0  0  0  0
   38.7440   51.6230   40.9130 N   0  0  0  0  0  0
   38.2540   52.1840   34.4180 N   0  3  0  0  0  0
   40.4000   53.2460   41.2700 O   0  0  0  0  0  0
   39.8860   49.2360   41.9530 O   0  0  0  0  0  0
   39.2610   49.7160   44.0460 O   0  0  0  0  0  0
   34.2620   47.6510   35.5890 C   0  0  0  0  0  0
   35.9070   52.4480   37.1000 C   0  0  0  0  0  0
   38.8640   48.6210   36.6390 H   0  0  0  0  0  0
   37.0310   47.1370   35.9440 H   0  0  0  0  0  0
   34.1980   50.3430   36.2520 H   0  0  0  0  0  0
   36.9620   51.4250   39.7270 H   0  0  0  0  0  0
   37.9570   49.9520   39.8130 H   0  0  0  0  0  0
   42.2210   53.9880   36.7220 H   0  0  0  0  0  0
   42.1630   52.6380   35.5630 H   0  0  0  0  0  0
   41.0660   54.0260   35.3690 H   0  0  0  0  0  0
   39.9940   48.5150   45.5560 H   0  0  0  0  0  0
   39.8430   47.7370   43.9630 H   0  0  0  0  0  0
   41.1490   48.9090   44.2600 H   0  0  0  0  0  0
   40.3700   52.0720   34.4490 H   0  0  0  0  0  0
   39.5350   50.5280   34.7430 H   0  0  0  0  0  0
   37.4670   51.0870   42.4340 H   0  0  0  0  0  0
   38.8500   52.0980   42.9120 H   0  0  0  0  0  0
   38.1920   52.0290   33.4220 H   0  0  0  0  0  0
   37.4680   51.7460   34.8770 H   0  0  0  0  0  0
   38.2420   53.1770   34.6050 H   0  0  0  0  0  0
   33.3260   48.2090   35.5640 H   0  0  0  0  0  0
   34.4730   47.2530   34.5960 H   0  0  0  0  0  0
   34.1750   46.8290   36.2990 H   0  0  0  0  0  0
   36.8220   52.9630   37.3930 H   0  0  0  0  0  0
   35.4860   52.9320   36.2190 H   0  0  0  0  0  0
   35.1880   52.4930   37.9180 H   0  0  0  0  0  0
  1  2  2  0  0  0
  1  4  1  0  0  0
  1 27  1  0  0  0
  2  8  1  0  0  0
  2 28  1  0  0  0
  3  8  2  0  0  0
  3  9  1  0  0  0
  3 29  1  0  0  0
  4  5  1  0  0  0
  4  9  2  0  0  0
  5  6  2  0  0  0
  5  7  1  0  0  0
  6 10  1  0  0  0
  6 14  1  0  0  0
  7 11  2  0  0  0
  7 17  1  0  0  0
  8 25  1  0  0  0
  9 26  1  0  0  0
 10 12  1  0  0  0
 10 19  2  0  0  0
 11 15  1  0  0  0
 11 19  1  0  0  0
 12 20  1  0  0  0
 12 22  2  0  0  0
 13 18  1  0  0  0
 13 23  2  0  0  0
 13 24  1  0  0  0
 14 20  1  0  0  0
 14 30  1  0  0  0
 14 31  1  0  0  0
 15 32  1  0  0  0
 15 33  1  0  0  0
 15 34  1  0  0  0
 16 24  1  0  0  0
 16 35  1  0  0  0
 16 36  1  0  0  0
 16 37  1  0  0  0
 17 21  1  0  0  0
 17 38  1  0  0  0
 17 39  1  0  0  0
 18 20  1  0  0  0
 18 40  1  0  0  0
 18 41  1  0  0  0
 21 42  1  0  0  0
 21 43  1  0  0  0
 21 44  1  0  0  0
 25 45  1  0  0  0
 25 46  1  0  0  0
 25 47  1  0  0  0
 26 48  1  0  0  0
 26 49  1  0  0  0
 26 50  1  0  0  0
M  CHG  1  21   1
M  END
> <s_m_entry_id>
36

> <s_m_entry_name>
P27487.36

$$$$
3qbj_lig_NXZ
                    3D
 Structure written by MMmdl.
 49 52  0  0  1  0            999 V2000
   41.0300   50.6060   36.0100 N   0  0  0  0  0  0
   39.2550   50.9410   34.5640 C   0  0  2  0  0  0
   38.7980   50.7240   36.0060 C   0  0  2  0  0  0
   39.8780   49.9600   36.7250 C   0  0  0  0  0  0
   40.7640   51.3210   34.7370 C   0  0  0  0  0  0
   45.9710   51.3760   36.2010 C   0  0  0  0  0  0
   47.2170   51.1670   36.9760 C   0  0  0  0  0  0
   48.4540   51.6980   36.4740 C   0  0  0  0  0  0
   48.4430   52.3900   35.2280 C   0  0  0  0  0  0
   47.2410   52.6070   34.4260 C   0  0  0  0  0  0
   45.9950   52.0930   34.9320 C   0  0  0  0  0  0
   44.6810   50.8400   36.7230 C   0  0  0  0  0  0
   43.4480   51.0290   36.0080 C   0  0  0  0  0  0
   42.2890   50.4770   36.5940 C   0  0  0  0  0  0
   42.4320   49.7680   37.8330 N   0  0  0  0  0  0
   43.5900   49.6080   38.5100 C   0  0  0  0  0  0
   44.6990   50.1320   37.9500 N   0  0  0  0  0  0
   38.5170   51.9950   33.9660 N   0  3  0  0  0  0
   37.4610   50.1260   36.0830 N   0  0  0  0  0  0
   37.3200   48.6550   35.7270 C   0  0  0  0  0  0
   35.8980   48.1640   35.5000 C   0  0  0  0  0  0
   34.7780   48.9600   36.3160 C   0  0  0  0  0  0
   34.9690   50.5070   36.3390 C   0  0  0  0  0  0
   36.4360   51.0160   36.4160 C   0  0  0  0  0  0
   36.6260   52.1940   36.6810 O   0  0  0  0  0  0
   39.1310   50.0160   33.9990 H   0  0  0  0  0  0
   38.5040   51.6790   36.4420 H   0  0  0  0  0  0
   39.8970   48.8850   36.5470 H   0  0  0  0  0  0
   39.9610   50.1510   37.7950 H   0  0  0  0  0  0
   40.9500   52.3870   34.8720 H   0  0  0  0  0  0
   41.4210   50.9340   33.9580 H   0  0  0  0  0  0
   47.1890   50.6210   37.9070 H   0  0  0  0  0  0
   49.3650   51.5690   37.0380 H   0  0  0  0  0  0
   49.3620   52.7910   34.8240 H   0  0  0  0  0  0
   47.3070   53.1380   33.4870 H   0  0  0  0  0  0
   45.0800   52.2360   34.3760 H   0  0  0  0  0  0
   43.4440   51.5690   35.0730 H   0  0  0  0  0  0
   43.5970   49.0810   39.4530 H   0  0  0  0  0  0
   38.8290   52.1270   33.0140 H   0  0  0  0  0  0
   37.5350   51.7610   33.9680 H   0  0  0  0  0  0
   38.6610   52.8470   34.4890 H   0  0  0  0  0  0
   37.8640   48.4500   34.8050 H   0  0  0  0  0  0
   37.7270   48.0450   36.5330 H   0  0  0  0  0  0
   35.6440   48.2600   34.4440 H   0  0  0  0  0  0
   35.8210   47.1190   35.7990 H   0  0  0  0  0  0
   33.8000   48.7690   35.8730 H   0  0  0  0  0  0
   34.7790   48.6260   37.3540 H   0  0  0  0  0  0
   34.5470   50.9400   35.4320 H   0  0  0  0  0  0
   34.4600   50.9230   37.2090 H   0  0  0  0  0  0
  1  4  1  0  0  0
  1  5  1  0  0  0
  1 14  1  0  0  0
  2  3  1  0  0  0
  2  5  1  0  0  0
  2 18  1  0  0  0
  2 26  1  0  0  0
  3  4  1  0  0  0
  3 19  1  0  0  0
  3 27  1  0  0  0
  4 28  1  0  0  0
  4 29  1  0  0  0
  5 30  1  0  0  0
  5 31  1  0  0  0
  6  7  2  0  0  0
  6 11  1  0  0  0
  6 12  1  0  0  0
  7  8  1  0  0  0
  7 32  1  0  0  0
  8  9  2  0  0  0
  8 33  1  0  0  0
  9 10  1  0  0  0
  9 34  1  0  0  0
 10 11  2  0  0  0
 10 35  1  0  0  0
 11 36  1  0  0  0
 12 13  2  0  0  0
 12 17  1  0  0  0
 13 14  1  0  0  0
 13 37  1  0  0  0
 14 15  2  0  0  0
 15 16  1  0  0  0
 16 17  2  0  0  0
 16 38  1  0  0  0
 18 39  1  0  0  0
 18 40  1  0  0  0
 18 41  1  0  0  0
 19 20  1  0  0  0
 19 24  1  0  0  0
 20 21  1  0  0  0
 20 42  1  0  0  0
 20 43  1  0  0  0
 21 22  1  0  0  0
 21 44  1  0  0  0
 21 45  1  0  0  0
 22 23  1  0  0  0
 22 46  1  0  0  0
 22 47  1  0  0  0
 23 24  1  0  0  0
 23 48  1  0  0  0
 23 49  1  0  0  0
 24 25  2  0  0  0
M  CHG  1  18   1
M  END
> <s_m_entry_id>
37

> <s_m_entry_name>
P27487.37

$$$$
3sww_lig_KXB
                    3D
 Structure written by MMmdl.
 45 47  0  0  1  0            999 V2000
   37.8390   49.0590   36.6030 C   0  0  0  0  0  0
   36.8370   48.2290   36.1390 C   0  0  0  0  0  0
   35.2090   50.0120   36.3260 C   0  0  0  0  0  0
   37.5390   50.3690   36.9230 C   0  0  0  0  0  0
   38.5950   51.2490   37.4250 C   0  0  0  0  0  0
   38.6710   51.4990   38.7830 C   0  0  0  0  0  0
   39.5420   51.8830   36.5830 C   0  0  0  0  0  0
   35.5480   48.7280   36.0170 C   0  0  0  0  0  0
   36.2180   50.8280   36.7840 C   0  0  0  0  0  0
   39.6770   52.3550   39.2610 C   0  0  0  0  0  0
   40.5040   52.7300   37.1520 C   0  0  0  0  0  0
   39.5620   52.4510   40.7440 C   0  0  0  0  0  0
   37.8290   50.9980   39.9190 C   0  0  0  0  0  0
   41.5420   53.4400   36.3470 C   0  0  0  0  0  0
   35.3320   52.8520   43.4230 C   0  0  0  0  0  0
   39.5220   51.6510   35.0840 C   0  0  0  0  0  0
   38.2050   51.1720   42.4630 C   0  0  0  0  0  0
   36.6530   51.0250   42.7300 C   0  0  0  0  0  0
   40.6030   52.9800   38.5070 N   0  0  0  0  0  0
   38.5260   51.5450   41.0780 N   0  0  0  0  0  0
   38.3260   52.2120   34.5290 N   0  3  0  0  0  0
   40.2180   53.1150   41.5390 O   0  0  0  0  0  0
   36.0520   52.2660   42.3560 O   0  0  0  0  0  0
   34.3150   47.7150   35.4420 Cl  0  0  0  0  0  0
   35.7950   52.4430   37.1860 Cl  0  0  0  0  0  0
   38.8450   48.6820   36.7120 H   0  0  0  0  0  0
   37.0620   47.2050   35.8770 H   0  0  0  0  0  0
   34.1880   50.3440   36.2060 H   0  0  0  0  0  0
   36.8130   51.3780   39.8130 H   0  0  0  0  0  0
   37.8140   49.9080   39.9060 H   0  0  0  0  0  0
   42.1710   54.0350   37.0080 H   0  0  0  0  0  0
   42.1570   52.7090   35.8210 H   0  0  0  0  0  0
   41.0560   54.0940   35.6230 H   0  0  0  0  0  0
   34.8920   53.7940   43.0910 H   0  0  0  0  0  0
   34.5390   52.1750   43.7430 H   0  0  0  0  0  0
   36.0070   53.0420   44.2580 H   0  0  0  0  0  0
   40.3910   52.1270   34.6300 H   0  0  0  0  0  0
   39.5470   50.5800   34.8820 H   0  0  0  0  0  0
   38.6160   51.9440   43.1140 H   0  0  0  0  0  0
   38.7010   50.2240   42.6700 H   0  0  0  0  0  0
   36.2560   50.2060   42.1300 H   0  0  0  0  0  0
   36.4830   50.8160   43.7860 H   0  0  0  0  0  0
   38.3130   52.0560   33.5310 H   0  0  0  0  0  0
   37.5200   51.7710   34.9480 H   0  0  0  0  0  0
   38.3010   53.2040   34.7150 H   0  0  0  0  0  0
  1  2  2  0  0  0
  1  4  1  0  0  0
  1 26  1  0  0  0
  2  8  1  0  0  0
  2 27  1  0  0  0
  3  8  2  0  0  0
  3  9  1  0  0  0
  3 28  1  0  0  0
  4  5  1  0  0  0
  4  9  2  0  0  0
  5  6  2  0  0  0
  5  7  1  0  0  0
  6 10  1  0  0  0
  6 13  1  0  0  0
  7 11  2  0  0  0
  7 16  1  0  0  0
  8 24  1  0  0  0
  9 25  1  0  0  0
 10 12  1  0  0  0
 10 19  2  0  0  0
 11 14  1  0  0  0
 11 19  1  0  0  0
 12 20  1  0  0  0
 12 22  2  0  0  0
 13 20  1  0  0  0
 13 29  1  0  0  0
 13 30  1  0  0  0
 14 31  1  0  0  0
 14 32  1  0  0  0
 14 33  1  0  0  0
 15 23  1  0  0  0
 15 34  1  0  0  0
 15 35  1  0  0  0
 15 36  1  0  0  0
 16 21  1  0  0  0
 16 37  1  0  0  0
 16 38  1  0  0  0
 17 18  1  0  0  0
 17 20  1  0  0  0
 17 39  1  0  0  0
 17 40  1  0  0  0
 18 23  1  0  0  0
 18 41  1  0  0  0
 18 42  1  0  0  0
 21 43  1  0  0  0
 21 44  1  0  0  0
 21 45  1  0  0  0
M  CHG  1  21   1
M  END
> <s_m_entry_id>
38

> <s_m_entry_name>
P27487.38

$$$$
4a5s_lig_N7F
                    3D
 Structure written by MMmdl.
 65 70  0  0  1  0            999 V2000
   37.7150   48.2180   42.3100 N   0  0  0  0  0  0
   38.7910   48.8540   42.8960 C   0  0  0  0  0  0
   39.6070   49.5520   42.1970 N   0  0  0  0  0  0
   37.5380   48.1490   40.9520 C   0  0  0  0  0  0
   38.5130   48.8890   40.1050 C   0  0  0  0  0  0
   39.4560   49.5920   40.7660 C   0  0  0  0  0  0
   40.1830   50.3250   39.7510 C   0  0  0  0  0  0
   39.6680   49.9500   38.5640 C   0  0  0  0  0  0
   38.6290   49.1630   38.8170 N   0  0  0  0  0  0
   41.2550   51.1990   40.1410 C   0  0  0  0  0  0
   42.1380   51.8670   40.4590 N   0  0  0  0  0  0
   40.0400   50.4970   37.4350 N   0  0  0  0  0  0
   39.0270   51.2940   36.6690 C   0  0  0  0  0  0
   39.2580   51.2200   35.1530 C   0  0  2  0  0  0
   40.6750   51.8220   34.9150 C   0  0  0  0  0  0
   41.7130   50.8420   35.5330 C   0  0  0  0  0  0
   41.4730   50.6380   37.0490 C   0  0  0  0  0  0
   38.2150   52.0000   34.4560 N   0  3  0  0  0  0
   38.0130   48.3220   37.7890 C   0  0  0  0  0  0
   36.6620   48.6720   37.1640 C   0  0  0  0  0  0
   35.9460   49.7920   37.5950 C   0  0  0  0  0  0
   34.7600   50.0930   36.9210 C   0  0  0  0  0  0
   34.2960   49.2720   35.8860 C   0  0  0  0  0  0
   35.0090   48.1430   35.4690 C   0  0  0  0  0  0
   36.2210   47.8600   36.1070 C   0  0  0  0  0  0
   36.5820   47.5530   40.4340 O   0  0  0  0  0  0
   36.7470   47.5540   43.1910 C   0  0  0  0  0  0
   35.4480   46.6590   45.7270 C   0  0  0  0  0  0
   34.8540   46.2510   46.9310 C   0  0  0  0  0  0
   34.4770   47.1790   47.9070 C   0  0  0  0  0  0
   34.5860   48.5550   47.6190 C   0  0  0  0  0  0
   36.2070   48.5290   44.2630 C   0  0  0  0  0  0
   35.6270   48.0420   45.4530 C   0  0  0  0  0  0
   35.2040   48.9790   46.4290 C   0  0  0  0  0  0
   35.2680   50.3140   46.1770 N   0  0  0  0  0  0
   35.6890   50.7950   44.9880 C   0  0  0  0  0  0
   36.1550   49.9190   43.9950 C   0  0  0  0  0  0
   38.9570   48.7660   43.9600 H   0  0  0  0  0  0
   38.0280   50.9090   36.8780 H   0  0  0  0  0  0
   39.0830   52.3400   36.9690 H   0  0  0  0  0  0
   39.2080   50.1810   34.8280 H   0  0  0  0  0  0
   40.8470   51.9330   33.8450 H   0  0  0  0  0  0
   40.7400   52.7980   35.3960 H   0  0  0  0  0  0
   41.6380   49.8720   35.0400 H   0  0  0  0  0  0
   42.7180   51.2420   35.3950 H   0  0  0  0  0  0
   41.9040   51.5020   37.5570 H   0  0  0  0  0  0
   42.0180   49.7390   37.3380 H   0  0  0  0  0  0
   38.3680   51.9510   33.4580 H   0  0  0  0  0  0
   37.3060   51.6200   34.6760 H   0  0  0  0  0  0
   38.2580   52.9640   34.7560 H   0  0  0  0  0  0
   38.6750   48.2600   36.9250 H   0  0  0  0  0  0
   37.8450   47.3220   38.1900 H   0  0  0  0  0  0
   36.3160   50.3850   38.4180 H   0  0  0  0  0  0
   34.1890   50.9670   37.1980 H   0  0  0  0  0  0
   33.3670   49.5040   35.3880 H   0  0  0  0  0  0
   34.6190   47.5200   34.6770 H   0  0  0  0  0  0
   36.8170   47.0180   35.7880 H   0  0  0  0  0  0
   35.9080   47.1880   42.6000 H   0  0  0  0  0  0
   37.2290   46.7160   43.6950 H   0  0  0  0  0  0
   35.7710   45.9210   45.0070 H   0  0  0  0  0  0
   34.6780   45.2020   47.1190 H   0  0  0  0  0  0
   34.1100   46.8360   48.8630 H   0  0  0  0  0  0
   34.1950   49.2850   48.3120 H   0  0  0  0  0  0
   35.6680   51.8570   44.7970 H   0  0  0  0  0  0
   36.4710   50.2960   43.0340 H   0  0  0  0  0  0
  1  2  1  0  0  0
  1  4  1  0  0  0
  1 27  1  0  0  0
  2  3  2  0  0  0
  2 38  1  0  0  0
  3  6  1  0  0  0
  4  5  1  0  0  0
  4 26  2  0  0  0
  5  6  2  0  0  0
  5  9  1  0  0  0
  6  7  1  0  0  0
  7  8  2  0  0  0
  7 10  1  0  0  0
  8  9  1  0  0  0
  8 12  1  0  0  0
  9 19  1  0  0  0
 10 11  3  0  0  0
 12 13  1  0  0  0
 12 17  1  0  0  0
 13 14  1  0  0  0
 13 39  1  0  0  0
 13 40  1  0  0  0
 14 15  1  0  0  0
 14 18  1  0  0  0
 14 41  1  0  0  0
 15 16  1  0  0  0
 15 42  1  0  0  0
 15 43  1  0  0  0
 16 17  1  0  0  0
 16 44  1  0  0  0
 16 45  1  0  0  0
 17 46  1  0  0  0
 17 47  1  0  0  0
 18 48  1  0  0  0
 18 49  1  0  0  0
 18 50  1  0  0  0
 19 20  1  0  0  0
 19 51  1  0  0  0
 19 52  1  0  0  0
 20 21  2  0  0  0
 20 25  1  0  0  0
 21 22  1  0  0  0
 21 53  1  0  0  0
 22 23  2  0  0  0
 22 54  1  0  0  0
 23 24  1  0  0  0
 23 55  1  0  0  0
 24 25  2  0  0  0
 24 56  1  0  0  0
 25 57  1  0  0  0
 27 32  1  0  0  0
 27 58  1  0  0  0
 27 59  1  0  0  0
 28 29  2  0  0  0
 28 33  1  0  0  0
 28 60  1  0  0  0
 29 30  1  0  0  0
 29 61  1  0  0  0
 30 31  2  0  0  0
 30 62  1  0  0  0
 31 34  1  0  0  0
 31 63  1  0  0  0
 32 33  2  0  0  0
 32 37  1  0  0  0
 33 34  1  0  0  0
 34 35  2  0  0  0
 35 36  1  0  0  0
 36 37  2  0  0  0
 36 64  1  0  0  0
 37 65  1  0  0  0
M  CHG  1  18   1
M  END
> <s_m_entry_id>
39

> <s_m_entry_name>
P27487.39

$$$$
3c43_lig_315
                    3D
 Structure written by MMmdl.
 53 56  0  0  1  0            999 V2000
   39.8550   51.7300   36.0430 C   0  0  2  0  0  0
   38.6310   51.2780   35.1420 C   0  0  0  0  0  0
   37.2570   51.2590   35.9300 C   0  0  0  0  0  0
   36.4430   50.1820   35.7430 N   0  0  0  0  0  0
   36.9420   52.2300   36.6370 O   0  0  0  0  0  0
   38.5810   51.9790   34.2290 N   0  0  0  0  0  0
   41.1130   52.1590   35.2250 C   0  0  0  0  0  0
   36.8430   48.8420   35.3010 C   0  0  0  0  0  0
   35.6520   47.9560   35.5460 C   0  0  2  0  0  0
   34.4710   48.8910   35.6280 C   0  0  0  0  0  0
   35.0100   50.2860   35.9670 C   0  0  0  0  0  0
   35.7980   47.3250   36.7710 F   0  0  0  0  0  0
   41.8730   53.4160   35.7950 C   0  0  0  0  0  0
   43.1130   52.9140   36.4820 C   0  0  0  0  0  0
   42.0450   53.6950   37.2130 C   0  0  0  0  0  0
   40.3250   50.5490   37.0400 C   0  0  0  0  0  0
   40.4020   50.5980   38.3430 N   0  0  0  0  0  0
   40.8510   49.3480   38.6140 C   0  0  0  0  0  0
   41.0130   48.6300   37.4780 N   0  0  0  0  0  0
   40.6760   49.4020   36.4400 O   0  0  0  0  0  0
   41.1030   48.7540   39.9670 C   0  0  0  0  0  0
   40.2760   49.2010   41.0390 C   0  0  0  0  0  0
   40.4110   48.6660   42.3280 C   0  0  0  0  0  0
   41.3830   47.6750   42.5960 C   0  0  0  0  0  0
   42.2370   47.2130   41.5680 C   0  0  0  0  0  0
   42.1020   47.7510   40.2720 C   0  0  0  0  0  0
   42.9420   47.2440   39.3520 F   0  0  0  0  0  0
   41.5180   46.9680   44.2240 S   0  0  0  0  0  0
   41.7780   45.5660   44.0570 O   0  0  0  0  0  0
   40.3020   47.3100   44.9400 O   0  0  0  0  0  0
   42.9350   47.7960   44.9460 C   0  0  0  0  0  0
   39.5224   52.5717   36.6518 H   0  0  0  0  0  0
   37.6331   52.1283   33.9096 H   0  0  0  0  0  0
   41.7915   51.3163   35.0864 H   0  0  0  0  0  0
   40.8941   52.4483   34.1987 H   0  0  0  0  0  0
   37.0755   48.8746   34.2355 H   0  0  0  0  0  0
   37.7279   48.4800   35.8285 H   0  0  0  0  0  0
   35.5333   47.1728   34.7953 H   0  0  0  0  0  0
   33.9836   48.9310   34.6530 H   0  0  0  0  0  0
   33.7199   48.5507   36.3423 H   0  0  0  0  0  0
   34.8215   50.5274   37.0150 H   0  0  0  0  0  0
   34.5563   51.0640   35.3508 H   0  0  0  0  0  0
   41.9968   54.2474   35.1025 H   0  0  0  0  0  0
   43.2083   51.8639   36.7549 H   0  0  0  0  0  0
   44.0497   53.4241   36.2651 H   0  0  0  0  0  0
   42.2819   54.7195   37.4939 H   0  0  0  0  0  0
   41.4352   53.1569   37.9348 H   0  0  0  0  0  0
   39.5197   49.9499   40.8483 H   0  0  0  0  0  0
   39.7589   48.9991   43.1238 H   0  0  0  0  0  0
   42.9660   46.4427   41.7733 H   0  0  0  0  0  0
   43.0714   47.4115   45.9548 H   0  0  0  0  0  0
   43.8172   47.5828   44.3468 H   0  0  0  0  0  0
   42.7415   48.8658   44.9807 H   0  0  0  0  0  0
  1  2  1  0  0  0
  1  7  1  0  0  0
  1 16  1  0  0  0
  1 32  1  0  0  0
  2  3  1  0  0  0
  2  6  2  0  0  0
  3  4  1  0  0  0
  3  5  2  0  0  0
  4  8  1  0  0  0
  4 11  1  0  0  0
  6 33  1  0  0  0
  7 13  1  0  0  0
  7 34  1  0  0  0
  7 35  1  0  0  0
  8  9  1  0  0  0
  8 36  1  0  0  0
  8 37  1  0  0  0
  9 10  1  0  0  0
  9 12  1  0  0  0
  9 38  1  0  0  0
 10 11  1  0  0  0
 10 39  1  0  0  0
 10 40  1  0  0  0
 11 41  1  0  0  0
 11 42  1  0  0  0
 13 14  1  0  0  0
 13 15  1  0  0  0
 13 43  1  0  0  0
 14 15  1  0  0  0
 14 44  1  0  0  0
 14 45  1  0  0  0
 15 46  1  0  0  0
 15 47  1  0  0  0
 16 17  2  0  0  0
 16 20  1  0  0  0
 17 18  1  0  0  0
 18 19  2  0  0  0
 18 21  1  0  0  0
 19 20  1  0  0  0
 21 22  2  0  0  0
 21 26  1  0  0  0
 22 23  1  0  0  0
 22 48  1  0  0  0
 23 24  2  0  0  0
 23 49  1  0  0  0
 24 25  1  0  0  0
 24 28  1  0  0  0
 25 26  2  0  0  0
 25 50  1  0  0  0
 26 27  1  0  0  0
 28 29  2  0  0  0
 28 30  2  0  0  0
 28 31  1  0  0  0
 31 51  1  0  0  0
 31 52  1  0  0  0
 31 53  1  0  0  0
M  END
> <s_m_entry_id>
40

> <s_m_entry_name>
P27487.24

> <s_m_job_name>
impact_mini

> <r_i_Potential_Energy-OPLS2005>
-121.254917500683

> <r_i_RMS_Derivative-OPLS2005>
8.33342148187819e-05

> <r_i_Max_Derivative-OPLS2005>
0.000252878658306678

> <r_i_Stretch_Energy-OPLS2005>
0.0139948380606343

> <r_i_Bend_Energy-OPLS2005>
2.06022077281873

> <r_i_Dihedral_Energy-OPLS2005>
19.1276598554477

> <r_i_LJ-14_Energy-OPLS2005>
2.01187440844079

> <r_i_El-14_Energy-OPLS2005>
6.81202046926156

> <r_i_Van_der_Waals_Energy-OPLS2005>
-0.12487369923439

> <r_i_Electrostatic_Energy-OPLS2005>
-151.155814145478

> <r_i_target_temperature>
298

$$$$
