3ral_ligand_core
  Mrv2305 08232521483D          

 10 10  0  0  0  0            999 V2000
    1.5440   31.5980    7.0820 N   0  0  0  0  0  0  0  0  0  0  0  0
    0.9360   29.4540    8.3920 S   0  0  0  0  0  0  0  0  0  0  0  0
   -0.0470   33.1560    7.8580 N   0  0  0  0  0  0  0  0  0  0  0  0
    2.9620   29.8310    6.5270 N   0  0  0  0  0  0  0  0  0  0  0  0
    0.0250   30.8760    8.6390 C   0  0  0  0  0  0  0  0  0  0  0  0
    0.4850   31.9190    7.8580 C   0  0  0  0  0  0  0  0  0  0  0  0
    1.9030   30.3200    7.2500 C   0  0  0  0  0  0  0  0  0  0  0  0
    3.1680   30.3300    5.6730 H   0  0  0  0  0  0  0  0  0  0  0  0
    0.4290   33.7060    7.1580 H   0  0  0  0  0  0  0  0  0  0  0  0
   -0.7950   33.4780    8.4560 H   0  0  0  0  0  0  0  0  0  0  0  0
  5  2  1  0  0  0  0
  5  6  2  0  0  0  0
  6  3  1  0  0  0  0
  6  1  1  0  0  0  0
  7  2  1  0  0  0  0
  7  4  1  0  0  0  0
  7  1  2  0  0  0  0
  9  3  1  0  0  0  0
 10  3  1  0  0  0  0
  8  4  1  0  0  0  0
M  END
$$$$
