3ral_ligand
     RDKit          3D

 32 34  0  0  0  0  0  0  0  0999 V2000
   -2.0910   27.3610   11.9840 C   0  0  0  0  0  0  0  0  0  0  0  0
    1.5440   31.5980    7.0820 N   0  0  0  0  0  0  0  0  0  0  0  0
    7.8280   25.9210    8.4050 O   0  0  0  0  0  0  0  0  0  0  0  0
    0.9360   29.4540    8.3920 S   0  0  0  0  0  0  0  0  0  0  0  0
   -3.1050   27.9420   11.1060 C   0  0  0  0  0  0  0  0  0  0  0  0
   -0.0470   33.1560    7.8580 N   0  0  0  0  0  0  0  0  0  0  0  0
    7.1700   24.7830    6.0770 O   0  0  0  0  0  0  0  0  0  0  0  0
    6.6200   25.3370    7.5120 S   0  0  1  0  0  0  0  0  0  0  0  0
   -2.8030   29.1130   10.3250 C   0  0  0  0  0  0  0  0  0  0  0  0
    2.9620   29.8310    6.5270 N   0  0  0  0  0  0  0  0  0  0  0  0
   -1.8120   32.0910    9.7270 O   0  0  0  0  0  0  0  0  0  0  0  0
   -0.4720   29.1330   11.2910 C   0  0  0  0  0  0  0  0  0  0  0  0
    5.9170   24.1950    8.3020 N   0  0  0  0  0  0  0  0  0  0  0  0
   -0.7590   27.9690   12.0750 C   0  0  0  0  0  0  0  0  0  0  0  0
   -4.3820   27.3770   10.9960 O   0  0  0  0  0  0  0  0  0  0  0  0
   -4.7780   26.2910   11.6620 C   0  0  0  0  0  0  0  0  0  0  0  0
   -1.4790   29.7250   10.4050 C   0  0  0  0  0  0  0  0  0  0  0  0
   -1.1230   30.9340    9.5980 C   0  0  0  0  0  0  0  0  0  0  0  0
    0.0250   30.8760    8.6390 C   0  0  0  0  0  0  0  0  0  0  0  0
    0.4850   31.9190    7.8580 C   0  0  0  0  0  0  0  0  0  0  0  0
    1.9030   30.3200    7.2500 C   0  0  0  0  0  0  0  0  0  0  0  0
    3.7870   28.7560    6.7970 C   0  0  0  0  0  0  0  0  0  0  0  0
    3.6610   27.8880    7.9950 C   0  0  0  0  0  0  0  0  0  0  0  0
    4.5470   26.8120    8.2180 C   0  0  0  0  0  0  0  0  0  0  0  0
    5.5970   26.5450    7.2600 C   0  0  0  0  0  0  0  0  0  0  0  0
    5.7340   27.3790    6.0710 C   0  0  0  0  0  0  0  0  0  0  0  0
    4.8450   28.4650    5.8430 C   0  0  0  0  0  0  0  0  0  0  0  0
    3.1680   30.3300    5.6730 H   0  0  0  0  0  0  0  0  0  0  0  0
    0.4290   33.7060    7.1580 H   0  0  0  0  0  0  0  0  0  0  0  0
   -0.7950   33.4780    8.4560 H   0  0  0  0  0  0  0  0  0  0  0  0
    5.6990   24.5150    9.2350 H   0  0  0  0  0  0  0  0  0  0  0  0
    6.5310   23.3950    8.3550 H   0  0  0  0  0  0  0  0  0  0  0  0
  1 14  2  0
  1  5  1  0
 17 18  1  0
 17  9  1  0
 17 12  2  0
 18 19  1  0
 18 11  2  0
 19  4  1  0
 19 20  2  0
 20  6  1  0
 20  2  1  0
 21  4  1  0
 21 10  1  0
 21  2  2  0
 22 23  2  0
 22 27  1  0
 22 10  1  0
 23 24  1  0
 24 25  2  0
 25 26  1  0
 25  8  1  0
 26 27  2  0
  5 15  1  0
  5  9  2  0
 12 14  1  0
 16 15  1  0
 29  6  1  0
 30  6  1  0
 28 10  1  0
 31 13  1  0
 32 13  1  0
  8 13  1  1
  3  8  2  0
  7  8  2  0
M  END
$$$$
